
  CDK     0721101957

 14 16  0  0  0  0  0  0  0  0999 V2000
    7.7399    0.0000    0.0000 N   0  0  0  0  0  3  0  0  0  0  0  0
    6.5325    0.6966    0.0000 C   0  0  0  0  0  4  0  0  0  0  0  0
    6.5325    2.0974    0.0000 C   0  0  0  0  0  4  0  0  0  0  0  0
    5.3173    2.7940    0.0000 C   0  0  0  0  0  4  0  0  0  0  0  0
    4.1098    2.0974    0.0000 C   0  0  0  0  0  4  0  0  0  0  0  0
    4.1098    0.6966    0.0000 C   0  0  0  0  0  4  0  0  0  0  0  0
    5.3173    0.0000    0.0000 N   0  0  0  0  0  3  0  0  0  0  0  0
    2.7786    0.2631    0.0000 N   0  0  0  0  0  3  0  0  0  0  0  0
    1.9581    1.4009    0.0000 C   0  0  0  0  0  4  0  0  0  0  0  0
    0.5650    1.5402    0.0000 C   0  0  0  0  0  4  0  0  0  0  0  0
    0.0000    2.8172    0.0000 C   0  0  0  0  0  4  0  0  0  0  0  0
    0.8204    3.9473    0.0000 C   0  0  0  0  0  4  0  0  0  0  0  0
    2.2136    3.8080    0.0000 C   0  0  0  0  0  4  0  0  0  0  0  0
    2.7786    2.5309    0.0000 C   0  0  0  0  0  4  0  0  0  0  0  0
  1  2  1  0  0  0  0 
  2  3  1  0  0  0  0 
  2  7  2  0  0  0  0 
  3  4  2  0  0  0  0 
  4  5  1  0  0  0  0 
  5  6  2  0  0  0  0 
  5 14  1  0  0  0  0 
  6  7  1  0  0  0  0 
  6  8  1  0  0  0  0 
  8  9  1  0  0  0  0 
  9 10  2  0  0  0  0 
  9 14  1  0  0  0  0 
 10 11  1  0  0  0  0 
 11 12  2  0  0  0  0 
 12 13  1  0  0  0  0 
 13 14  2  0  0  0  0 
M  END
> <CDK Fingerprint>
AoGRIgQggBAMBgYAAQAAAAAAAABAAAAAAAAECAIACADgAABgIACAAAABACAIAAAAACAAAADCIAAAAJAAAIEAAAAAAKAAAEAABAAAAAAAgAAAgAEAACBAIAAAAAEAoEAAAQAgCJFABIACAQABAAAEABCACAAKQAAAAIACEEI=

> <ActivityOutcome_CPDBAS_Rat>
blank

> <TD50_Rat_mmol>
blank

$$$$

  CDK     0721101957

  3  2  0  0  0  0  0  0  0  0999 V2000
    2.3030   -0.6656    0.0000 C   0  0  0  0  0  4  0  0  0  0  0  0
    1.1515    0.0000    0.0000 C   0  0  0  0  0  4  0  0  0  0  0  0
    0.0000   -0.6656    0.0000 O   0  0  0  0  0  2  0  0  0  0  0  0
  1  2  1  0  0  0  0 
  2  3  2  0  0  0  0 
M  END
> <CDK Fingerprint>
YAAAAAAAAAAAAAAAACAAAAAAAAAAAAAAAAAAAAAAAAAAAAAAAAAAAAAAAAAAAAAAAAAAAAAAAAAAAAAAAAAAQAAAAAAAAAAAAAAAAAAAAAAAABAAAAAAAAAAAAAA

> <ActivityOutcome_CPDBAS_Rat>
active

> <TD50_Rat_mmol>
3.47

$$$$

  CDK     0721101957

  4  3  0  0  0  0  0  0  0  0999 V2000
    0.0000    0.0000    0.0000 C   0  0  0  0  0  4  0  0  0  0  0  0
    1.1513   -0.6638    0.0000 C   0  0  0  0  0  4  0  0  0  0  0  0
    2.3061    0.0000    0.0000 N   0  0  0  0  0  3  0  0  0  0  0  0
    3.4575   -0.6638    0.0000 O   0  0  0  0  0  2  0  0  0  0  0  0
  1  2  1  0  0  0  0 
  2  3  2  0  0  0  0 
  3  4  1  0  0  0  0 
M  END
> <CDK Fingerprint>
QAAAAAAIAAAAAAAAAAAAAAAAAAAAAAAAAAAAAABgAAAAAAAAAAAAAAAAICAAAAAAAAAAAAAAAAAAAAAAAAAAAAAAAAAAAAAAAAAAAAEAAAAAAAAAAAAAAAAAAAAAAAAAAAAAAAAAAAAAgAAAAAAAAAAAAAAAAAAAAAA=

> <ActivityOutcome_CPDBAS_Rat>
inactive

$$$$

  CDK     0721101957

  4  3  0  0  0  0  0  0  0  0999 V2000
    1.9950    0.0000    0.0000 C   0  0  0  0  0  4  0  0  0  0  0  0
    1.3292   -1.1518    0.0000 C   0  0  0  0  0  4  0  0  0  0  0  0
    1.9950   -2.3037    0.0000 O   0  0  0  0  0  2  0  0  0  0  0  0
    0.0000   -1.1518    0.0000 N   0  0  0  0  0  3  0  0  0  0  0  0
  1  2  1  0  0  0  0 
  2  3  2  0  0  0  0 
  2  4  1  0  0  0  0 
M  END
> <CDK Fingerprint>
AgAAAAAAAAAAAAAAAAAAAAAAAAAAAAAAAAAAYAAAAAAAAAAAAAAAACAAAAAAAAAAAAAAAAAAAAAAAAAAAAAAAAAAAAAAAAAAAAAAAAAAAAAAAAAAAAAAAAAAQAAAAAAAAAAAAAAAAAAAAAAAAFAAAAAAAAAAAgAA

> <ActivityOutcome_CPDBAS_Rat>
active

> <TD50_Rat_mmol>
3.05

$$$$

  CDK     0721101957

 11 11  0  0  0  0  0  0  0  0999 V2000
    3.8512   -1.8702    0.0000 C   0  0  0  0  0  4  0  0  0  0  0  0
    2.9346   -2.8163    0.0000 C   0  0  0  0  0  4  0  0  0  0  0  0
    3.5407   -0.5987    0.0000 C   0  0  0  0  0  4  0  0  0  0  0  0
    5.1522   -2.2102    0.0000 N   0  0  0  0  0  3  0  0  0  0  0  0
    1.6410   -2.4689    0.0000 C   0  0  0  0  0  4  0  0  0  0  0  0
    2.2397   -0.2587    0.0000 C   0  0  0  0  0  4  0  0  0  0  0  0
    6.0983   -1.2862    0.0000 C   0  0  0  0  0  4  0  0  0  0  0  0
    1.2936   -1.2049    0.0000 C   0  0  0  0  0  4  0  0  0  0  0  0
    5.7583    0.0000    0.0000 C   0  0  0  0  0  4  0  0  0  0  0  0
    7.3919   -1.6114    0.0000 O   0  0  0  0  0  2  0  0  0  0  0  0
    0.0000   -0.8575    0.0000 O   0  0  0  0  0  2  0  0  0  0  0  0
  1  2  2  0  0  0  0 
  1  3  1  0  0  0  0 
  1  4  1  0  0  0  0 
  2  5  1  0  0  0  0 
  3  6  2  0  0  0  0 
  4  7  1  0  0  0  0 
  5  8  2  0  0  0  0 
  6  8  1  0  0  0  0 
  7  9  1  0  0  0  0 
  7 10  2  0  0  0  0 
  8 11  1  0  0  0  0 
M  END
> <CDK Fingerprint>
ICIAAAIAAAAAAAAAAAAAAEABAAAAAATAAgAAAmEIAAAAAAAAAAAAAIAgAAQgAAACAEAAAACABAAAwAAAAAAAAQAAAAAABIAAkAABAAAAAAAAAAAAAAAAAAAgAEAAACAgAAAAAAIAAAAAAAAAAIhQAEAAgBAAAAIQAA==

> <ActivityOutcome_CPDBAS_Rat>
active

> <TD50_Rat_mmol>
3.27

$$$$

  CDK     0721101957

 22 23  0  0  0  0  0  0  0  0999 V2000
    5.1434   -4.1211    0.0000 O   0  0  0  0  0  2  0  0  0  0  0  0
    3.9933   -3.4609    0.0000 S   0  0  0  0  0  6  0  0  0  0  0  0
    2.8432   -2.7900    0.0000 O   0  0  0  0  0  2  0  0  0  0  0  0
    3.3224   -4.6110    0.0000 C   0  0  0  0  0  4  0  0  0  0  0  0
    1.9913   -4.6110    0.0000 C   0  0  0  0  0  4  0  0  0  0  0  0
    1.3311   -5.7610    0.0000 C   0  0  0  0  0  4  0  0  0  0  0  0
    1.9913   -6.9111    0.0000 C   0  0  0  0  0  4  0  0  0  0  0  0
    3.3224   -6.9111    0.0000 C   0  0  0  0  0  4  0  0  0  0  0  0
    3.9933   -5.7610    0.0000 C   0  0  0  0  0  4  0  0  0  0  0  0
    1.3311   -8.0718    0.0000 C   0  0  0  0  0  4  0  0  0  0  0  0
    1.9913   -9.2219    0.0000 O   0  0  0  0  0  2  0  0  0  0  0  0
    0.0000   -8.0718    0.0000 C   0  0  0  0  0  4  0  0  0  0  0  0
    4.6642   -2.3002    0.0000 N   0  0  0  0  0  3  0  0  0  0  0  0
    5.9953   -2.3002    0.0000 C   0  0  0  0  0  4  0  0  0  0  0  0
    6.6555   -3.4609    0.0000 O   0  0  0  0  0  2  0  0  0  0  0  0
    6.6555   -1.1501    0.0000 N   0  0  0  0  0  3  0  0  0  0  0  0
    7.9866   -1.1501    0.0000 C   0  0  0  0  0  4  0  0  0  0  0  0
    8.6575    0.0000    0.0000 C   0  0  0  0  0  4  0  0  0  0  0  0
    9.9780    0.0000    0.0000 C   0  0  0  0  0  4  0  0  0  0  0  0
   10.6489   -1.1501    0.0000 C   0  0  0  0  0  4  0  0  0  0  0  0
    9.9780   -2.3002    0.0000 C   0  0  0  0  0  4  0  0  0  0  0  0
    8.6575   -2.3002    0.0000 C   0  0  0  0  0  4  0  0  0  0  0  0
  1  2  2  0  0  0  0 
  2  3  2  0  0  0  0 
  2  4  1  0  0  0  0 
  2 13  1  0  0  0  0 
  4  5  2  0  0  0  0 
  4  9  1  0  0  0  0 
  5  6  1  0  0  0  0 
  6  7  2  0  0  0  0 
  7  8  1  0  0  0  0 
  7 10  1  0  0  0  0 
  8  9  2  0  0  0  0 
 10 11  2  0  0  0  0 
 10 12  1  0  0  0  0 
 13 14  1  0  0  0  0 
 14 15  2  0  0  0  0 
 14 16  1  0  0  0  0 
 16 17  1  0  0  0  0 
 17 18  1  0  0  0  0 
 17 22  1  0  0  0  0 
 18 19  1  0  0  0  0 
 19 20  1  0  0  0  0 
 20 21  1  0  0  0  0 
 21 22  1  0  0  0  0 
M  END
> <CDK Fingerprint>
AIIAIAAACAIQgEAAAQAAAAEAAAQQEABAAAEQAAAAAAgBGWhEAQCGAggAsAAAAQAgAEAgIhAACEAIAEDAAMEggAQIIAAAEUARYAAIIAAQgAAgQAqgAEAYAIEAAAACgQAhAEAAwCMAAAAACiJEGAUAsGAcAIFwKGAJAAEoAoJEAA==

> <ActivityOutcome_CPDBAS_Rat>
inactive

$$$$

  CDK     0721101957

 18 19  0  0  0  0  0  0  0  0999 V2000
   11.1272   -2.0879    0.0000 C   0  0  0  0  0  4  0  0  0  0  0  0
   11.1272   -0.7492    0.0000 C   0  0  0  0  0  4  0  0  0  0  0  0
   12.2816   -2.7511    0.0000 C   0  0  0  0  0  4  0  0  0  0  0  0
    9.9727   -2.7511    0.0000 N   0  0  0  0  0  3  0  0  0  0  0  0
    8.8182   -2.0879    0.0000 N   0  0  0  0  0  3  0  0  0  0  0  0
    7.6760   -2.7511    0.0000 C   0  0  0  0  0  4  0  0  0  0  0  0
    7.5286   -4.0652    0.0000 N   0  0  0  0  0  3  0  0  0  0  0  0
    6.2268   -4.3477    0.0000 C   0  0  0  0  0  4  0  0  0  0  0  0
    5.5636   -3.1932    0.0000 C   0  0  0  0  0  4  0  0  0  0  0  0
    6.4601   -2.2107    0.0000 S   0  0  0  0  0  2  0  0  0  0  0  0
    4.2372   -3.0581    0.0000 C   0  0  0  0  0  4  0  0  0  0  0  0
    3.3529   -4.0407    0.0000 C   0  0  0  0  0  4  0  0  0  0  0  0
    2.1370   -3.5003    0.0000 C   0  0  0  0  0  4  0  0  0  0  0  0
    2.2721   -2.1861    0.0000 C   0  0  0  0  0  4  0  0  0  0  0  0
    3.5740   -1.9037    0.0000 O   0  0  0  0  0  2  0  0  0  0  0  0
    1.2896   -1.2896    0.0000 N   0  0  0  0  0  4  0  0  0  0  0  0
    0.0000   -1.6335    0.0000 O   0  0  0  0  0  2  0  0  0  0  0  0
    1.6335    0.0000    0.0000 O   0  0  0  0  0  1  0  0  0  0  0  0
  1  2  1  0  0  0  0 
  1  3  1  0  0  0  0 
  1  4  2  0  0  0  0 
  4  5  1  0  0  0  0 
  5  6  1  0  0  0  0 
  6  7  2  0  0  0  0 
  6 10  1  0  0  0  0 
  7  8  1  0  0  0  0 
  8  9  2  0  0  0  0 
  9 10  1  0  0  0  0 
  9 11  1  0  0  0  0 
 11 12  2  0  0  0  0 
 11 15  1  0  0  0  0 
 12 13  1  0  0  0  0 
 13 14  2  0  0  0  0 
 14 15  1  0  0  0  0 
 14 16  1  0  0  0  0 
 16 17  2  0  0  0  0 
 16 18  1  0  0  0  0 
M  CHG  1  16   1
M  CHG  1  18  -1
M  END
> <CDK Fingerprint>
IQACAlCCQyVwANBIFIDEAIFLJEQAETrBUQkMQOSFVAxAAAVgABUAgBGaYAgCQgKCJKjYAAaAAAZAgqwAQASAMAEYAhAEBAAAAAEAwEwMgARggC9BEAEkAEGYBiAiEYiNcgpFYRQgBAmQAHotQJAEAwAimGECgCiQOAwIQUKDDwA=

> <ActivityOutcome_CPDBAS_Rat>
active

> <TD50_Rat_mmol>
0.0227

$$$$

  CDK     0721101957

  3  2  0  0  0  0  0  0  0  0999 V2000
    2.6600    0.0000    0.0000 C   0  0  0  0  0  4  0  0  0  0  0  0
    1.3300    0.0000    0.0000 C   0  0  0  0  0  4  0  0  0  0  0  0
    0.0000    0.0000    0.0000 N   0  0  0  0  0  3  0  0  0  0  0  0
  1  2  1  0  0  0  0 
  2  3  3  0  0  0  0 
M  END
> <CDK Fingerprint>
YAAAAAAAAAAAAAAAACAAAAAAAAAAAAAAAAAAAAAAAAAAAAAAAAAAAAAAAAAAAAAAAAAAAAAAAAAAAAAAAAAAAAAAAAAAAAAAAAAACAAAAAAAAAAAIAAAAAAAAAAA

> <ActivityOutcome_CPDBAS_Rat>
inactive

$$$$

  CDK     0721101957

  5  4  0  0  0  0  0  0  0  0999 V2000
    3.4567   -1.9945    0.0000 C   0  0  0  0  0  4  0  0  0  0  0  0
    2.3056   -1.3308    0.0000 C   0  0  0  0  0  4  0  0  0  0  0  0
    1.1511   -1.9945    0.0000 N   0  0  0  0  0  3  0  0  0  0  0  0
    0.0000   -1.3308    0.0000 O   0  0  0  0  0  2  0  0  0  0  0  0
    2.3056    0.0000    0.0000 C   0  0  0  0  0  4  0  0  0  0  0  0
  1  2  1  0  0  0  0 
  2  3  2  0  0  0  0 
  2  5  1  0  0  0  0 
  3  4  1  0  0  0  0 
M  END
> <CDK Fingerprint>
QAAAAAAIAAAAAAAAAAAAAAAAAAAAAAAAAAAAAABgAAAAAAAAAAAAAAAAICAAAAAAAAAAAAAAQAAAAAAAAAAAAAAAAAAAAAAAAAAAAAEAAAAAAAAAAAAAAAAAAAAAAAAAAAAAAAAAAAAAgAAAAAAAAAAAAAAAAAAAAAA=

> <ActivityOutcome_CPDBAS_Rat>
active

> <TD50_Rat_mmol>
0.166

$$$$

  CDK     0721101957

 16 17  0  0  0  0  0  0  0  0999 V2000
    1.1551   -0.6716    0.0000 O   0  0  0  0  0  2  0  0  0  0  0  0
    6.9126   -2.6594    0.0000 C   0  0  0  0  0  4  0  0  0  0  0  0
    6.9126   -3.9935    0.0000 C   0  0  0  0  0  4  0  0  0  0  0  0
    8.1751   -2.2475    0.0000 O   0  0  0  0  0  2  0  0  0  0  0  0
    8.1751   -4.4054    0.0000 O   0  0  0  0  0  2  0  0  0  0  0  0
    8.9541   -3.3309    0.0000 C   0  0  0  0  0  4  0  0  0  0  0  0
    5.7575   -1.9968    0.0000 C   0  0  0  0  0  4  0  0  0  0  0  0
    5.7575   -4.6561    0.0000 C   0  0  0  0  0  4  0  0  0  0  0  0
    3.4563   -0.6716    0.0000 C   0  0  0  0  0  4  0  0  0  0  0  0
    2.3012    0.0000    0.0000 C   0  0  0  0  0  4  0  0  0  0  0  0
    4.6024   -2.6594    0.0000 C   0  0  0  0  0  4  0  0  0  0  0  0
    4.6024   -3.9935    0.0000 C   0  0  0  0  0  4  0  0  0  0  0  0
    3.4563   -1.9968    0.0000 C   0  0  0  0  0  4  0  0  0  0  0  0
    2.3012   -2.6594    0.0000 O   0  0  0  0  0  2  0  0  0  0  0  0
    1.1551   -1.9968    0.0000 C   0  0  0  0  0  4  0  0  0  0  0  0
    0.0000   -2.6594    0.0000 C   0  0  0  0  0  4  0  0  0  0  0  0
  1 15  2  0  0  0  0 
  2  3  2  0  0  0  0 
  2  4  1  0  0  0  0 
  2  7  1  0  0  0  0 
  3  5  1  0  0  0  0 
  3  8  1  0  0  0  0 
  4  6  1  0  0  0  0 
  5  6  1  0  0  0  0 
  7 11  2  0  0  0  0 
  8 12  2  0  0  0  0 
  9 13  1  0  0  0  0 
  9 10  2  0  0  0  0 
 11 12  1  0  0  0  0 
 11 13  1  0  0  0  0 
 13 14  1  0  0  0  0 
 14 15  1  0  0  0  0 
 15 16  1  0  0  0  0 
M  END
> <CDK Fingerprint>
AkACAAgAAAVACgCCAAAAAAABAAIoBQAAgBACAMAAAgiIJAphEIAEgIAACAAAAABAIAbkIEAQECBIABAgQAAAAAAOGAAACABCAgACBAIAAIAAEgAAAAAAAACUEUAAIICIIIBKwEAgJGADEAACTAgECoOQFACAUCAAgBGgISAiIAA=

> <ActivityOutcome_CPDBAS_Rat>
active

> <TD50_Rat_mmol>
0.114

$$$$

  CDK     0721101957

 16 17  0  0  0  0  0  0  0  0999 V2000
    1.9954    0.0000    0.0000 C   0  0  0  0  0  4  0  0  0  0  0  0
    1.3269   -1.1473    0.0000 C   0  0  0  0  0  4  0  0  0  0  0  0
    0.0000   -1.1473    0.0000 O   0  0  0  0  0  2  0  0  0  0  0  0
    1.9954   -2.3046    0.0000 N   0  0  0  0  0  3  0  0  0  0  0  0
    3.3223   -2.3046    0.0000 C   0  0  0  0  0  4  0  0  0  0  0  0
    3.9907   -1.1473    0.0000 C   0  0  0  0  0  4  0  0  0  0  0  0
    5.3176   -1.1473    0.0000 C   0  0  0  0  0  4  0  0  0  0  0  0
    5.9861   -2.3046    0.0000 C   0  0  0  0  0  4  0  0  0  0  0  0
    5.3176   -3.4520    0.0000 C   0  0  0  0  0  4  0  0  0  0  0  0
    3.9907   -3.4520    0.0000 C   0  0  0  0  0  4  0  0  0  0  0  0
    7.3130   -2.3046    0.0000 C   0  0  0  0  0  4  0  0  0  0  0  0
    7.9814   -1.1473    0.0000 C   0  0  0  0  0  4  0  0  0  0  0  0
    9.3083   -1.1473    0.0000 C   0  0  0  0  0  4  0  0  0  0  0  0
    9.9768   -2.3046    0.0000 C   0  0  0  0  0  4  0  0  0  0  0  0
    9.3083   -3.4520    0.0000 C   0  0  0  0  0  4  0  0  0  0  0  0
    7.9814   -3.4520    0.0000 C   0  0  0  0  0  4  0  0  0  0  0  0
  1  2  1  0  0  0  0 
  2  3  2  0  0  0  0 
  2  4  1  0  0  0  0 
  4  5  1  0  0  0  0 
  5  6  2  0  0  0  0 
  5 10  1  0  0  0  0 
  6  7  1  0  0  0  0 
  7  8  2  0  0  0  0 
  8  9  1  0  0  0  0 
  8 11  1  0  0  0  0 
  9 10  2  0  0  0  0 
 11 12  2  0  0  0  0 
 11 16  1  0  0  0  0 
 12 13  1  0  0  0  0 
 13 14  2  0  0  0  0 
 14 15  1  0  0  0  0 
 15 16  2  0  0  0  0 
M  END
> <CDK Fingerprint>
ISAiBAAAAAAIAAAAAAAAEABBQQAAAAIEwAMAAABgAAAAAAAAAAAAAACAoAAEAAAABgBAAAAAgAQIAMAEAAAAAAEAAAAAAASAANAAAAAAAAAAAACAAAAAAIAAIABAAEAgAAAAAEACQAEAAAgAAAiA0ADAEIgIAAACEAA=

> <ActivityOutcome_CPDBAS_Rat>
active

> <TD50_Rat_mmol>
0.00559

$$$$

  CDK     0721101957

 17 19  0  0  0  0  0  0  0  0999 V2000
    8.3884   -2.2984    0.0000 C   0  0  0  0  0  4  0  0  0  0  0  0
    7.7257   -3.4560    0.0000 C   0  0  0  0  0  4  0  0  0  0  0  0
    8.3884   -4.6052    0.0000 O   0  0  0  0  0  2  0  0  0  0  0  0
    6.3920   -3.4560    0.0000 N   0  0  0  0  0  3  0  0  0  0  0  0
    5.7293   -2.2984    0.0000 C   0  0  0  0  0  4  0  0  0  0  0  0
    4.3955   -2.2984    0.0000 C   0  0  0  0  0  4  0  0  0  0  0  0
    3.5064   -3.2883    0.0000 C   0  0  0  0  0  4  0  0  0  0  0  0
    2.2900   -2.7514    0.0000 C   0  0  0  0  0  4  0  0  0  0  0  0
    1.0737   -3.2883    0.0000 C   0  0  0  0  0  4  0  0  0  0  0  0
    0.0000   -2.5081    0.0000 C   0  0  0  0  0  4  0  0  0  0  0  0
    0.1426   -1.1828    0.0000 C   0  0  0  0  0  4  0  0  0  0  0  0
    1.3505   -0.6459    0.0000 C   0  0  0  0  0  4  0  0  0  0  0  0
    2.4326   -1.4260    0.0000 C   0  0  0  0  0  4  0  0  0  0  0  0
    3.7328   -1.1492    0.0000 C   0  0  0  0  0  4  0  0  0  0  0  0
    4.3955    0.0000    0.0000 C   0  0  0  0  0  4  0  0  0  0  0  0
    5.7293    0.0000    0.0000 C   0  0  0  0  0  4  0  0  0  0  0  0
    6.3920   -1.1492    0.0000 C   0  0  0  0  0  4  0  0  0  0  0  0
  1  2  1  0  0  0  0 
  2  3  2  0  0  0  0 
  2  4  1  0  0  0  0 
  4  5  1  0  0  0  0 
  5  6  2  0  0  0  0 
  5 17  1  0  0  0  0 
  6  7  1  0  0  0  0 
  6 14  1  0  0  0  0 
  7  8  1  0  0  0  0 
  8  9  2  0  0  0  0 
  8 13  1  0  0  0  0 
  9 10  1  0  0  0  0 
 10 11  2  0  0  0  0 
 11 12  1  0  0  0  0 
 12 13  2  0  0  0  0 
 13 14  1  0  0  0  0 
 14 15  2  0  0  0  0 
 15 16  1  0  0  0  0 
 16 17  2  0  0  0  0 
M  END
> <CDK Fingerprint>
AYQQACAAICIFEAAAgAhBsA0EAAAAAUABAIAABhTAAggAAGAgEAAAAIgAAAYEAoJgAAQAAAaGAEAhAADABAEAwAUI0IAAAUEAAAAABIEg0AgACALAgICIQoAgAAQIgABgQEkAQCAAAAAAUKpgASUAAAYUKIDQAkEQqA4EAAISAA==

> <ActivityOutcome_CPDBAS_Rat>
inactive

$$$$

  CDK     0721101957

 17 19  0  0  0  0  0  0  0  0999 V2000
    5.7640   -1.7698    0.0000 C   0  0  0  0  0  4  0  0  0  0  0  0
    7.0213   -1.3540    0.0000 C   0  0  0  0  0  4  0  0  0  0  0  0
    7.8046   -2.4275    0.0000 C   0  0  0  0  0  4  0  0  0  0  0  0
    9.1296   -2.2921    0.0000 C   0  0  0  0  0  4  0  0  0  0  0  0
    9.6712   -1.0735    0.0000 C   0  0  0  0  0  4  0  0  0  0  0  0
    8.8878    0.0000    0.0000 C   0  0  0  0  0  4  0  0  0  0  0  0
    7.5629   -0.1451    0.0000 C   0  0  0  0  0  4  0  0  0  0  0  0
    7.0213   -3.5106    0.0000 C   0  0  0  0  0  4  0  0  0  0  0  0
    5.7640   -3.0948    0.0000 C   0  0  0  0  0  4  0  0  0  0  0  0
    4.6035   -3.7621    0.0000 C   0  0  0  0  0  4  0  0  0  0  0  0
    3.4526   -3.0948    0.0000 C   0  0  0  0  0  4  0  0  0  0  0  0
    3.4526   -1.7698    0.0000 C   0  0  0  0  0  4  0  0  0  0  0  0
    4.6035   -1.1025    0.0000 C   0  0  0  0  0  4  0  0  0  0  0  0
    2.3017   -3.7621    0.0000 N   0  0  0  0  0  3  0  0  0  0  0  0
    1.1509   -3.0948    0.0000 C   0  0  0  0  0  4  0  0  0  0  0  0
    0.0000   -3.7621    0.0000 C   0  0  0  0  0  4  0  0  0  0  0  0
    1.1509   -1.7698    0.0000 O   0  0  0  0  0  2  0  0  0  0  0  0
  1  2  1  0  0  0  0 
  1  9  1  0  0  0  0 
  1 13  2  0  0  0  0 
  2  3  2  0  0  0  0 
  2  7  1  0  0  0  0 
  3  4  1  0  0  0  0 
  3  8  1  0  0  0  0 
  4  5  2  0  0  0  0 
  5  6  1  0  0  0  0 
  6  7  2  0  0  0  0 
  8  9  1  0  0  0  0 
  9 10  2  0  0  0  0 
 10 11  1  0  0  0  0 
 11 12  2  0  0  0  0 
 11 14  1  0  0  0  0 
 12 13  1  0  0  0  0 
 14 15  1  0  0  0  0 
 15 16  1  0  0  0  0 
 15 17  2  0  0  0  0 
M  END
> <CDK Fingerprint>
AIQAAAApICIFAAAAgCgBMAkAIAIQQEFBAAAAAgzAAwgAAGEgQRAAAIAAAAYAAoCgAAQAAgCGAEABAADABAkAwAUIwACAAUAAAAAARIAg0AgAEADAAIAAAIAgAgAIgAAgQEkAQCAAQAAAQAJgAQ0ACAQUCoDQAsEQiAgEAAIQAA==

> <ActivityOutcome_CPDBAS_Rat>
active

> <TD50_Rat_mmol>
0.00546

$$$$

  CDK     0721101957

 17 19  0  0  0  0  0  0  0  0999 V2000
    2.4236    3.3523    0.0000 C   0  0  0  0  0  4  0  0  0  0  0  0
    3.4655    2.4085    0.0000 C   0  0  0  0  0  4  0  0  0  0  0  0
    2.8992    1.1326    0.0000 C   0  0  0  0  0  4  0  0  0  0  0  0
    3.7221    0.0000    0.0000 C   0  0  0  0  0  4  0  0  0  0  0  0
    5.1113    0.1434    0.0000 C   0  0  0  0  0  4  0  0  0  0  0  0
    5.6851    1.4269    0.0000 C   0  0  0  0  0  4  0  0  0  0  0  0
    4.8622    2.5595    0.0000 C   0  0  0  0  0  4  0  0  0  0  0  0
    1.5025    1.2760    0.0000 C   0  0  0  0  0  4  0  0  0  0  0  0
    1.2156    2.6501    0.0000 C   0  0  0  0  0  4  0  0  0  0  0  0
    0.0000    3.3523    0.0000 C   0  0  0  0  0  4  0  0  0  0  0  0
    0.0000    4.7490    0.0000 C   0  0  0  0  0  4  0  0  0  0  0  0
    1.2156    5.4511    0.0000 C   0  0  0  0  0  4  0  0  0  0  0  0
    2.4236    4.7490    0.0000 C   0  0  0  0  0  4  0  0  0  0  0  0
    3.6390    5.4511    0.0000 N   0  0  0  0  0  3  0  0  0  0  0  0
    3.6390    6.8478    0.0000 C   0  0  0  0  0  4  0  0  0  0  0  0
    2.4236    7.5500    0.0000 C   0  0  0  0  0  4  0  0  0  0  0  0
    4.8470    7.5500    0.0000 O   0  0  0  0  0  2  0  0  0  0  0  0
  1  2  1  0  0  0  0 
  1  9  1  0  0  0  0 
  1 13  2  0  0  0  0 
  2  3  2  0  0  0  0 
  2  7  1  0  0  0  0 
  3  4  1  0  0  0  0 
  3  8  1  0  0  0  0 
  4  5  2  0  0  0  0 
  5  6  1  0  0  0  0 
  6  7  2  0  0  0  0 
  8  9  1  0  0  0  0 
  9 10  2  0  0  0  0 
 10 11  1  0  0  0  0 
 11 12  2  0  0  0  0 
 12 13  1  0  0  0  0 
 13 14  1  0  0  0  0 
 14 15  1  0  0  0  0 
 15 16  1  0  0  0  0 
 15 17  2  0  0  0  0 
M  END
> <CDK Fingerprint>
AIQABAgIICIFAAAAgCgBMAkAIAIAAUADAAAAAgzAEggAAGEkQRAAQIAAAAYAAoBgAAQAAArGAEABSADIBAEAwAU4wAAgAUAABAAARIAg0AgAEADACIAAAIAgAgAIkARgQGkAQGAAAAAAQAJgAQ0AAAQWCIDQAkEQiAgEACIQEA==

> <ActivityOutcome_CPDBAS_Rat>
inactive

$$$$

  CDK     0721101957

 14 14  0  0  0  0  0  0  0  0999 V2000
    5.7595   -0.6749    0.0000 C   0  0  0  0  0  4  0  0  0  0  0  0
    5.7595   -1.9876    0.0000 C   0  0  0  0  0  4  0  0  0  0  0  0
    4.6224    0.0000    0.0000 C   0  0  0  0  0  4  0  0  0  0  0  0
    4.6224   -2.6625    0.0000 C   0  0  0  0  0  4  0  0  0  0  0  0
    3.4853   -0.6749    0.0000 C   0  0  0  0  0  4  0  0  0  0  0  0
    3.4853   -1.9876    0.0000 C   0  0  0  0  0  4  0  0  0  0  0  0
    6.9335    0.0000    0.0000 C   0  0  0  0  0  4  0  0  0  0  0  0
    8.0891   -0.6564    0.0000 C   0  0  0  0  0  4  0  0  0  0  0  0
    9.2447    0.0000    0.0000 O   0  0  0  0  0  2  0  0  0  0  0  0
    8.0891   -1.9876    0.0000 O   0  0  0  0  0  2  0  0  0  0  0  0
    2.3112   -2.6625    0.0000 N   0  0  0  0  0  3  0  0  0  0  0  0
    1.1556   -1.9876    0.0000 C   0  0  0  0  0  4  0  0  0  0  0  0
    0.0000   -2.6625    0.0000 C   0  0  0  0  0  4  0  0  0  0  0  0
    1.1556   -0.6564    0.0000 O   0  0  0  0  0  2  0  0  0  0  0  0
  1  2  1  0  0  0  0 
  1  3  2  0  0  0  0 
  1  7  1  0  0  0  0 
  2  4  2  0  0  0  0 
  3  5  1  0  0  0  0 
  4  6  1  0  0  0  0 
  5  6  2  0  0  0  0 
  6 11  1  0  0  0  0 
  7  8  1  0  0  0  0 
  8  9  2  0  0  0  0 
  8 10  1  0  0  0  0 
 11 12  1  0  0  0  0 
 12 13  1  0  0  0  0 
 12 14  2  0  0  0  0 
M  END
> <CDK Fingerprint>
ASAiCAACEgBAAAAAAAAAAABBAQQAAAAEwAIIAABgAAAAAAAAAAAAAACQoAEEQAAAAgBAAAAA0AQAAMAMDCAAABEAAAAQAASABJAAAAAAQAAAAACAEAAAAoAAIABAAEAgAAAAAAACQAAEAQAAFACAUADAAIAAACACUAA=

> <ActivityOutcome_CPDBAS_Rat>
inactive

$$$$

  CDK     0721101957

 10  9  0  0  0  0  0  0  0  0999 V2000
    2.3100   -1.9854    0.0000 C   0  0  0  0  0  4  0  0  0  0  0  0
    3.4651   -1.3307    0.0000 C   0  0  0  0  0  4  0  0  0  0  0  0
    2.3100   -3.3213    0.0000 N   0  0  0  0  0  3  0  0  0  0  0  0
    3.4651   -3.9920    0.0000 C   0  0  0  0  0  4  0  0  0  0  0  0
    3.4651    0.0000    0.0000 O   0  0  0  0  0  2  0  0  0  0  0  0
    3.4651   -5.3227    0.0000 O   0  0  0  0  0  2  0  0  0  0  0  0
    4.6148   -1.9854    0.0000 O   0  0  0  0  0  2  0  0  0  0  0  0
    0.0000   -1.9854    0.0000 S   0  0  0  0  0  2  0  0  0  0  0  0
    1.1710   -1.3307    0.0000 C   0  0  0  0  0  4  0  0  0  0  0  0
    4.6148   -3.3213    0.0000 C   0  0  0  0  0  4  0  0  0  0  0  0
  1  2  1  0  0  0  0 
  1  3  1  1  0  0  0 
  1  9  1  0  0  0  0 
  2  5  2  0  0  0  0 
  2  7  1  0  0  0  0 
  3  4  1  0  0  0  0 
  4  6  2  0  0  0  0 
  4 10  1  0  0  0  0 
  8  9  1  0  0  0  0 
M  END
> <CDK Fingerprint>
EAAAAAAAAgAAAgAAAAAAAQAAAAAAAAAAAAAAAAAAAAABYAAAAAAAAAAAAAABGCAAAAAAIQAAAAIEAMAAAASAAAAAAAAAAAAAAAAAAACAAAAAQIAAAAAAABAAAAAAAAAAQAAAAQAAAAAAAQAAAAGAIAAAAFABAAAAAAAAAgAR

> <ActivityOutcome_CPDBAS_Rat>
inactive

$$$$

  CDK     0721101957

  4  3  0  0  0  0  0  0  0  0999 V2000
    0.0000    0.0000    0.0000 C   0  0  0  0  0  4  0  0  0  0  0  0
    1.1513   -0.6638    0.0000 C   0  0  0  0  0  4  0  0  0  0  0  0
    2.3061    0.0000    0.0000 C   0  0  0  0  0  4  0  0  0  0  0  0
    3.4575   -0.6638    0.0000 O   0  0  0  0  0  2  0  0  0  0  0  0
  1  2  2  0  0  0  0 
  2  3  1  0  0  0  0 
  3  4  2  0  0  0  0 
M  END
> <CDK Fingerprint>
QAAAAAAAAAAAAAAAAAAAAAAAAAAAAAAAAAAAAAAAAAAAAGAAAAAAAAAAAAAAAAAgAAAAAAAQAAAAAAAAAAAAAAAAAAAAAAAAAAAAAAAAAAAAAAAAAAAAAAAAAAAAAAAAAEAAAAAAAAAAAAAAAAAAAAAAAAAwAAAAAAAAAAAAAA==

> <ActivityOutcome_CPDBAS_Rat>
inactive

$$$$

  CDK     0721101957

  9  8  0  0  0  0  0  0  0  0999 V2000
    0.0000   -1.9953    0.0000 C   0  0  0  0  0  4  0  0  0  0  0  0
    1.1520   -2.6588    0.0000 C   0  0  0  0  0  4  0  0  0  0  0  0
    2.3040   -1.9953    0.0000 C   0  0  0  0  0  4  0  0  0  0  0  0
    2.3040   -0.6635    0.0000 O   0  0  0  0  0  2  0  0  0  0  0  0
    1.1520    0.0000    0.0000 C   0  0  0  0  0  4  0  0  0  0  0  0
    0.0000   -0.6635    0.0000 C   0  0  0  0  0  4  0  0  0  0  0  0
    3.4560   -2.6588    0.0000 O   0  0  0  0  0  2  0  0  0  0  0  0
    4.6080   -1.9953    0.0000 C   0  0  0  0  0  4  0  0  0  0  0  0
    4.6080   -0.6635    0.0000 C   0  0  0  0  0  4  0  0  0  0  0  0
  1  2  2  0  0  0  0 
  2  3  1  0  0  0  0 
  3  4  1  0  0  0  0 
  3  7  1  0  0  0  0 
  4  5  1  0  0  0  0 
  5  6  1  0  0  0  0 
  7  8  1  0  0  0  0 
  8  9  1  0  0  0  0 
M  END
> <CDK Fingerprint>
QAAAAAAAAAAAAAMAAAAAACAAAAAAAACAEAAAAAAAAAAAAGAAgAAAAAAAAAAAAAAgAgAAABAQAAAAAAAAAAAAAAAAAAAAAEAAAAAAAAAAAAAAAAgAAAAAAAARAAAAAAAAAABAAAAAAAAAAAAAAAAAAQAAAAAAAAAAAAAAAAAAAA==

> <ActivityOutcome_CPDBAS_Rat>
inactive

$$$$

  CDK     0721101957

  5  4  0  0  0  0  0  0  0  0999 V2000
    4.6099   -0.6638    0.0000 C   0  0  0  0  0  4  0  0  0  0  0  0
    3.4575    0.0000    0.0000 C   0  0  0  0  0  4  0  0  0  0  0  0
    2.3050   -0.6638    0.0000 C   0  0  0  0  0  4  0  0  0  0  0  0
    1.1525    0.0000    0.0000 N   0  0  0  0  0  3  0  0  0  0  0  0
    0.0000   -0.6638    0.0000 O   0  0  0  0  0  2  0  0  0  0  0  0
  1  2  2  0  0  0  0 
  2  3  1  0  0  0  0 
  3  4  2  0  0  0  0 
  4  5  1  0  0  0  0 
M  END
> <CDK Fingerprint>
QAAAAABAAAAAAQgAAAAAAAAAAAAAAAAAAAAAAAAAAAAAAGAAAAAAAAAAAAAAAAAgIAAAAAAQAAAAAAAAAAAAAAAAAAAAAAAAAAAAIAAAAAAAAQAAAAAAAAAAAAAAAAAAAAAAAAAAAAAAAAAAAACAAAAAAAAAAAAAAAAAAAAAAA==

> <ActivityOutcome_CPDBAS_Rat>
inactive

$$$$

  CDK     0721101957

 24 27  0  0  0  0  0  0  0  0999 V2000
    6.9100   -5.0061    0.0000 C   0  0  0  0  0  4  0  0  0  0  0  0
    5.7600   -5.6730    0.0000 N   0  0  0  0  0  3  0  0  0  0  0  0
    4.6099   -5.0061    0.0000 C   0  0  0  0  0  4  0  0  0  0  0  0
    3.4598   -5.6730    0.0000 C   0  0  0  0  0  4  0  0  0  0  0  0
    2.3001   -5.0061    0.0000 C   0  0  0  0  0  4  0  0  0  0  0  0
    1.1501   -5.6730    0.0000 O   0  0  0  0  0  2  0  0  0  0  0  0
    0.0000   -5.0061    0.0000 C   0  0  0  0  0  4  0  0  0  0  0  0
    2.3001   -3.6821    0.0000 C   0  0  0  0  0  4  0  0  0  0  0  0
    3.4598   -3.0153    0.0000 C   0  0  0  0  0  4  0  0  0  0  0  0
    4.6099   -3.6821    0.0000 C   0  0  0  0  0  4  0  0  0  0  0  0
    5.7600   -3.0153    0.0000 C   0  0  0  0  0  4  0  0  0  0  0  0
    5.7600   -1.6816    0.0000 C   0  0  0  0  0  4  0  0  0  0  0  0
    4.6099   -1.0148    0.0000 C   0  0  0  0  0  4  0  0  0  0  0  0
    3.4598   -1.6816    0.0000 O   0  0  0  0  0  2  0  0  0  0  0  0
    3.7498    0.0000    0.0000 C   0  0  0  0  0  4  0  0  0  0  0  0
    5.4604    0.0000    0.0000 C   0  0  0  0  0  4  0  0  0  0  0  0
    3.4598   -7.0067    0.0000 C   0  0  0  0  0  4  0  0  0  0  0  0
    4.6099   -7.6735    0.0000 C   0  0  0  0  0  4  0  0  0  0  0  0
    5.7600   -7.0067    0.0000 C   0  0  0  0  0  4  0  0  0  0  0  0
    6.9100   -7.6735    0.0000 C   0  0  0  0  0  4  0  0  0  0  0  0
    6.9100   -8.9975    0.0000 C   0  0  0  0  0  4  0  0  0  0  0  0
    5.7600   -9.6644    0.0000 C   0  0  0  0  0  4  0  0  0  0  0  0
    4.6099   -8.9975    0.0000 C   0  0  0  0  0  4  0  0  0  0  0  0
    2.3001   -7.6735    0.0000 O   0  0  0  0  0  2  0  0  0  0  0  0
  1  2  1  0  0  0  0 
  2  3  1  0  0  0  0 
  2 19  1  0  0  0  0 
  3  4  2  0  0  0  0 
  3 10  1  0  0  0  0 
  4  5  1  0  0  0  0 
  4 17  1  0  0  0  0 
  5  6  1  0  0  0  0 
  5  8  2  0  0  0  0 
  6  7  1  0  0  0  0 
  8  9  1  0  0  0  0 
  9 10  2  0  0  0  0 
  9 14  1  0  0  0  0 
 10 11  1  0  0  0  0 
 11 12  2  0  0  0  0 
 12 13  1  0  0  0  0 
 13 14  1  0  0  0  0 
 13 15  1  0  0  0  0 
 13 16  1  0  0  0  0 
 17 18  1  0  0  0  0 
 17 24  2  0  0  0  0 
 18 19  2  0  0  0  0 
 18 23  1  0  0  0  0 
 19 20  1  0  0  0  0 
 20 21  2  0  0  0  0 
 21 22  1  0  0  0  0 
 22 23  2  0  0  0  0 
M  END
> <CDK Fingerprint>
GEAAIxYiwIUiSpEGAJgIBJKBBBAGJBpAkAQaAEQuaIZvAo5pCEAiBwqACUhCRIAQcAYkIASSHgBCASAIwBQkAlgOGAAErwARmRAApAIQIoAIMAhQEAAICECAMNgAQoAAIatTaEEgaDQQAREuTAIMAKE6NCCjEDhFMCACZkAiEgA=

> <ActivityOutcome_CPDBAS_Rat>
active

> <TD50_Rat_mmol>
0.00157

$$$$

  CDK     0721101957

  5  4  0  0  0  0  0  0  0  0999 V2000
    3.4567   -1.9945    0.0000 N   0  0  0  0  0  3  0  0  0  0  0  0
    2.3056   -1.3308    0.0000 C   0  0  0  0  0  4  0  0  0  0  0  0
    2.3056    0.0000    0.0000 O   0  0  0  0  0  2  0  0  0  0  0  0
    1.1511   -1.9945    0.0000 C   0  0  0  0  0  4  0  0  0  0  0  0
    0.0000   -1.3308    0.0000 C   0  0  0  0  0  4  0  0  0  0  0  0
  1  2  1  0  0  0  0 
  2  3  2  0  0  0  0 
  2  4  1  0  0  0  0 
  4  5  2  0  0  0  0 
M  END
> <CDK Fingerprint>
QAAAAAAAAAIAAAAAAAAAAAAAAAAAAAAAAAAAAAAAAAIAAGAAAAAAAAAAAAAAAAAgAAAAAAAQAAAAAAAAAAAAAAAAAAAAAAAAAAAAAAAAAAAAAAAAAAAAAAAAAAAAAAAAAEAAAAAAAAAAAAAAAAAAAAAAAABwAAAAAAAAAAIAAA==

> <ActivityOutcome_CPDBAS_Rat>
active

> <TD50_Rat_mmol>
0.0528

$$$$

  CDK     0721101957

  5  4  0  0  0  0  0  0  0  0999 V2000
    3.4567   -1.9945    0.0000 O   0  0  0  0  0  2  0  0  0  0  0  0
    2.3056   -1.3308    0.0000 C   0  0  0  0  0  4  0  0  0  0  0  0
    2.3056    0.0000    0.0000 O   0  0  0  0  0  2  0  0  0  0  0  0
    1.1511   -1.9945    0.0000 C   0  0  0  0  0  4  0  0  0  0  0  0
    0.0000   -1.3308    0.0000 C   0  0  0  0  0  4  0  0  0  0  0  0
  1  2  1  0  0  0  0 
  2  3  2  0  0  0  0 
  2  4  1  0  0  0  0 
  4  5  2  0  0  0  0 
M  END
> <CDK Fingerprint>
QAAAAAAAAAAAAAIAAAAAAAAAAAAAAAAAAAAAAAAAAAAAAGAAAAAAAAAAAAAAAAAgAAAAABAQAAAAAAAAAAAAAAAAAAAAAAAAAAAAAAAAAAAAAAAAAAAAAAAQAAAAAAAAAEAAAAAAAAAAAAAAAAAAAAAAAABwAAAAAAAAAAAAAA==

> <ActivityOutcome_CPDBAS_Rat>
inactive

$$$$

  CDK     0721101957

  4  3  0  0  0  0  0  0  0  0999 V2000
    0.0000    0.0000    0.0000 C   0  0  0  0  0  4  0  0  0  0  0  0
    0.6652   -1.1508    0.0000 C   0  0  0  0  0  4  0  0  0  0  0  0
    1.9956   -1.1508    0.0000 C   0  0  0  0  0  4  0  0  0  0  0  0
    3.3260   -1.1508    0.0000 N   0  0  0  0  0  3  0  0  0  0  0  0
  1  2  2  0  0  0  0 
  2  3  1  0  0  0  0 
  3  4  3  0  0  0  0 
M  END
> <CDK Fingerprint>
QAAAAAAAAAAAAAAAAAAAAAAAAAAAAAAAAAAAAAAAAAAAAGAAAAAAAAAAAAAAAAAgAAAAAAAQAAAAAAAAAAAAAAAAAAAAAAAAAAAAAAAAAAAAAAAAAAAAAAAAAAAAAAAQAAAAAAAAAAAAAAAAAAgAAAAAAAAAACAAAAAAAAAAAA==

> <ActivityOutcome_CPDBAS_Rat>
active

> <TD50_Rat_mmol>
0.318

$$$$

  CDK     0721101957

 90 96  0  0  0  0  0  0  0  0999 V2000
   11.5534  -11.4484    0.0000 C   0  0  0  0  0  4  0  0  0  0  0  0
   11.5534  -12.6457    0.0000 C   0  0  0  0  0  4  0  0  0  0  0  0
   12.5827  -10.8602    0.0000 C   0  0  0  0  0  4  0  0  0  0  0  0
   10.5031  -10.8602    0.0000 N   0  0  0  0  0  3  0  0  0  0  0  0
   10.5031  -13.2549    0.0000 O   0  0  0  0  0  2  0  0  0  0  0  0
   12.5827  -13.2549    0.0000 C   0  0  0  0  0  4  0  0  0  0  0  0
   12.5827   -9.6629    0.0000 C   0  0  0  0  0  4  0  0  0  0  0  0
   13.6330  -11.4484    0.0000 C   0  0  0  0  0  4  0  0  0  0  0  0
    9.4738  -11.4484    0.0000 C   0  0  0  0  0  4  0  0  0  0  0  0
    9.4738  -12.6457    0.0000 C   0  0  0  0  0  4  0  0  0  0  0  0
   13.6330  -12.6457    0.0000 C   0  0  0  0  0  4  0  0  0  0  0  0
   12.5827  -14.4523    0.0000 C   0  0  0  0  0  4  0  0  0  0  0  0
   13.6330   -9.0537    0.0000 N   0  0  0  0  0  3  0  0  0  0  0  0
   11.5534   -9.0537    0.0000 O   0  0  0  0  0  2  0  0  0  0  0  0
   14.6623  -10.8602    0.0000 N   0  0  0  0  0  3  0  0  0  0  0  0
    8.4235  -10.8602    0.0000 C   0  0  0  0  0  4  0  0  0  0  0  0
    8.4235  -13.2549    0.0000 C   0  0  0  0  0  4  0  0  0  0  0  0
   14.6623  -13.2549    0.0000 O   0  0  0  0  0  2  0  0  0  0  0  0
    8.4235   -9.6629    0.0000 C   0  0  0  0  0  4  0  0  0  0  0  0
    7.3942  -11.4484    0.0000 C   0  0  0  0  0  4  0  0  0  0  0  0
    7.3942  -12.6457    0.0000 C   0  0  0  0  0  4  0  0  0  0  0  0
    8.4235  -14.4523    0.0000 C   0  0  0  0  0  4  0  0  0  0  0  0
    7.3942   -9.0537    0.0000 N   0  0  0  0  0  3  0  0  0  0  0  0
    9.4738   -9.0537    0.0000 O   0  0  0  0  0  2  0  0  0  0  0  0
   13.6330   -7.7933    0.0000 C   0  0  0  0  0  4  0  0  0  0  0  0
   12.5407   -7.1631    0.0000 C   0  0  0  0  0  4  0  0  0  0  0  0
   14.7043   -7.1631    0.0000 C   0  0  0  0  0  4  0  0  0  0  0  0
   12.5407   -2.2897    0.0000 N   0  0  0  0  0  3  0  0  0  0  0  0
   11.4694   -7.7933    0.0000 O   0  0  0  0  0  2  0  0  0  0  0  0
   14.7043   -5.9238    0.0000 C   0  0  0  0  0  4  0  0  0  0  0  0
   15.8177   -7.7723    0.0000 O   0  0  0  0  0  2  0  0  0  0  0  0
   16.8470   -7.1841    0.0000 C   0  0  0  0  0  4  0  0  0  0  0  0
   16.8470   -5.9868    0.0000 O   0  0  0  0  0  2  0  0  0  0  0  0
   13.5280   -1.8065    0.0000 C   0  0  0  0  0  4  0  0  0  0  0  0
   13.5280   -0.6092    0.0000 C   0  0  0  0  0  4  0  0  0  0  0  0
   15.6706   -2.3947    0.0000 C   0  0  0  0  0  4  0  0  0  0  0  0
   17.9603   -1.4704    0.0000 N   0  0  0  0  0  3  0  0  0  0  0  0
   15.6706   -3.5921    0.0000 O   0  0  0  0  0  2  0  0  0  0  0  0
   18.3384   -0.3151    0.0000 C   0  0  0  0  0  4  0  0  0  0  0  0
   18.9266   -2.1846    0.0000 C   0  0  0  0  0  4  0  0  0  0  0  0
   19.5358   -0.3151    0.0000 C   0  0  0  0  0  4  0  0  0  0  0  0
   19.9139   -1.4704    0.0000 C   0  0  0  0  0  4  0  0  0  0  0  0
   12.4777    0.0000    0.0000 C   0  0  0  0  0  4  0  0  0  0  0  0
   14.5573    0.0000    0.0000 C   0  0  0  0  0  4  0  0  0  0  0  0
   18.9266   -3.5711    0.0000 C   0  0  0  0  0  4  0  0  0  0  0  0
   17.9183   -4.1802    0.0000 O   0  0  0  0  0  2  0  0  0  0  0  0
   19.9769   -4.1802    0.0000 N   0  0  0  0  0  3  0  0  0  0  0  0
   19.9769   -5.3776    0.0000 C   0  0  0  0  0  4  0  0  0  0  0  0
   21.0062   -3.5711    0.0000 C   0  0  0  0  0  4  0  0  0  0  0  0
   18.9266   -5.9868    0.0000 C   0  0  0  0  0  4  0  0  0  0  0  0
   17.9183   -5.3776    0.0000 O   0  0  0  0  0  2  0  0  0  0  0  0
   18.9266   -7.1841    0.0000 N   0  0  0  0  0  3  0  0  0  0  0  0
   19.9769   -7.7723    0.0000 C   0  0  0  0  0  4  0  0  0  0  0  0
   17.9183   -7.7723    0.0000 C   0  0  0  0  0  4  0  0  0  0  0  0
   17.9183   -8.9697    0.0000 C   0  0  0  0  0  4  0  0  0  0  0  0
   18.9266   -9.5788    0.0000 C   0  0  0  0  0  4  0  0  0  0  0  0
   16.8470   -9.5788    0.0000 C   0  0  0  0  0  4  0  0  0  0  0  0
    7.3942   -7.7933    0.0000 C   0  0  0  0  0  4  0  0  0  0  0  0
    8.4865   -7.1631    0.0000 C   0  0  0  0  0  4  0  0  0  0  0  0
    6.3229   -7.1631    0.0000 C   0  0  0  0  0  4  0  0  0  0  0  0
    8.4865   -2.2897    0.0000 N   0  0  0  0  0  3  0  0  0  0  0  0
    9.5578   -7.7933    0.0000 O   0  0  0  0  0  2  0  0  0  0  0  0
    6.3229   -5.9238    0.0000 C   0  0  0  0  0  4  0  0  0  0  0  0
    5.1885   -7.7723    0.0000 O   0  0  0  0  0  2  0  0  0  0  0  0
    4.1592   -7.1841    0.0000 C   0  0  0  0  0  4  0  0  0  0  0  0
    4.1592   -5.9868    0.0000 O   0  0  0  0  0  2  0  0  0  0  0  0
    7.4992   -1.8065    0.0000 C   0  0  0  0  0  4  0  0  0  0  0  0
    7.4992   -0.6092    0.0000 C   0  0  0  0  0  4  0  0  0  0  0  0
    5.3566   -2.3947    0.0000 C   0  0  0  0  0  4  0  0  0  0  0  0
    3.0459   -1.4704    0.0000 N   0  0  0  0  0  3  0  0  0  0  0  0
    5.3566   -3.5921    0.0000 O   0  0  0  0  0  2  0  0  0  0  0  0
    2.6678   -0.3151    0.0000 C   0  0  0  0  0  4  0  0  0  0  0  0
    2.0796   -2.1846    0.0000 C   0  0  0  0  0  4  0  0  0  0  0  0
    1.4704   -0.3151    0.0000 C   0  0  0  0  0  4  0  0  0  0  0  0
    1.1133   -1.4704    0.0000 C   0  0  0  0  0  4  0  0  0  0  0  0
    8.5285    0.0000    0.0000 C   0  0  0  0  0  4  0  0  0  0  0  0
    6.4489    0.0000    0.0000 C   0  0  0  0  0  4  0  0  0  0  0  0
    2.0796   -3.5711    0.0000 C   0  0  0  0  0  4  0  0  0  0  0  0
    3.1089   -4.1802    0.0000 O   0  0  0  0  0  2  0  0  0  0  0  0
    1.0293   -4.1802    0.0000 N   0  0  0  0  0  3  0  0  0  0  0  0
    1.0293   -5.3776    0.0000 C   0  0  0  0  0  4  0  0  0  0  0  0
    0.0000   -3.5711    0.0000 C   0  0  0  0  0  4  0  0  0  0  0  0
    2.0796   -5.9868    0.0000 C   0  0  0  0  0  4  0  0  0  0  0  0
    3.1089   -5.3776    0.0000 O   0  0  0  0  0  2  0  0  0  0  0  0
    2.0796   -7.1841    0.0000 N   0  0  0  0  0  3  0  0  0  0  0  0
    1.0293   -7.7723    0.0000 C   0  0  0  0  0  4  0  0  0  0  0  0
    3.1089   -7.7723    0.0000 C   0  0  0  0  0  4  0  0  0  0  0  0
    3.1089   -8.9697    0.0000 C   0  0  0  0  0  4  0  0  0  0  0  0
    2.0796   -9.5788    0.0000 C   0  0  0  0  0  4  0  0  0  0  0  0
    4.1592   -9.5788    0.0000 C   0  0  0  0  0  4  0  0  0  0  0  0
  1  2  1  0  0  0  0 
  1  3  1  0  0  0  0 
  1  4  2  0  0  0  0 
  2  5  1  0  0  0  0 
  2  6  2  0  0  0  0 
  3  7  1  0  0  0  0 
  3  8  2  0  0  0  0 
  4  9  1  0  0  0  0 
  5 10  1  0  0  0  0 
  6 11  1  0  0  0  0 
  6 12  1  0  0  0  0 
  7 13  1  0  0  0  0 
  7 14  2  0  0  0  0 
  8 15  1  0  0  0  0 
  8 11  1  0  0  0  0 
  9 16  2  0  0  0  0 
  9 10  1  0  0  0  0 
 10 17  2  0  0  0  0 
 11 18  2  0  0  0  0 
 25 13  1  6  0  0  0 
 16 19  1  0  0  0  0 
 16 20  1  0  0  0  0 
 17 21  1  0  0  0  0 
 17 22  1  0  0  0  0 
 19 23  1  0  0  0  0 
 19 24  2  0  0  0  0 
 20 21  2  0  0  0  0 
 58 23  1  1  0  0  0 
 25 26  1  0  0  0  0 
 25 27  1  0  0  0  0 
 26 28  1  0  0  0  0 
 26 29  2  0  0  0  0 
 27 30  1  1  0  0  0 
 27 31  1  0  0  0  0 
 28 34  1  0  0  0  0 
 31 32  1  0  0  0  0 
 32 33  2  0  0  0  0 
 32 54  1  0  0  0  0 
 34 35  1  6  0  0  0 
 34 36  1  0  0  0  0 
 35 43  1  0  0  0  0 
 35 44  1  0  0  0  0 
 36 37  1  0  0  0  0 
 36 38  2  0  0  0  0 
 37 39  1  0  0  0  0 
 37 40  1  0  0  0  0 
 39 41  1  0  0  0  0 
 40 42  1  0  0  0  0 
 40 45  1  0  0  0  0 
 41 42  1  0  0  0  0 
 45 46  2  0  0  0  0 
 45 47  1  0  0  0  0 
 47 48  1  0  0  0  0 
 47 49  1  0  0  0  0 
 48 50  1  0  0  0  0 
 50 51  2  0  0  0  0 
 50 52  1  0  0  0  0 
 52 53  1  0  0  0  0 
 52 54  1  0  0  0  0 
 54 55  1  1  0  0  0 
 55 56  1  0  0  0  0 
 55 57  1  0  0  0  0 
 58 59  1  0  0  0  0 
 58 60  1  0  0  0  0 
 59 61  1  0  0  0  0 
 59 62  2  0  0  0  0 
 60 63  1  6  0  0  0 
 60 64  1  0  0  0  0 
 61 67  1  0  0  0  0 
 64 65  1  0  0  0  0 
 65 66  2  0  0  0  0 
 65 87  1  0  0  0  0 
 67 68  1  1  0  0  0 
 67 69  1  0  0  0  0 
 68 76  1  0  0  0  0 
 68 77  1  0  0  0  0 
 69 70  1  0  0  0  0 
 69 71  2  0  0  0  0 
 70 72  1  0  0  0  0 
 70 73  1  0  0  0  0 
 72 74  1  0  0  0  0 
 73 75  1  0  0  0  0 
 73 78  1  0  0  0  0 
 74 75  1  0  0  0  0 
 78 79  2  0  0  0  0 
 78 80  1  0  0  0  0 
 80 81  1  0  0  0  0 
 80 82  1  0  0  0  0 
 81 83  1  0  0  0  0 
 83 84  2  0  0  0  0 
 83 85  1  0  0  0  0 
 85 86  1  0  0  0  0 
 85 87  1  0  0  0  0 
 87 88  1  6  0  0  0 
 88 89  1  0  0  0  0 
 88 90  1  0  0  0  0 
M  END
> <CDK Fingerprint>
AKHI+8CN02B2fhzg9iRTmVcx5bshqDXTyOAWNELTZW2n/zuH6bbEZ96szvVc6Bgj/Gpa8jaK7XiDTLhcq+2OBHv33h5dhVaZ1f/pYqd6pHDLBaFPQj7DwOTzpTBhKmCA971Bc0xd+Sfw1W9qfv56mQ/fJDrVtPLfRPwRalRPYjhA

> <ActivityOutcome_CPDBAS_Rat>
active

> <TD50_Rat_mmol>
0.000000884

$$$$

  CDK     0721101957

 10  9  0  0  0  0  0  0  0  0999 V2000
    8.0713   -1.9936    0.0000 N   0  0  0  0  0  3  0  0  0  0  0  0
    6.9171   -1.3318    0.0000 C   0  0  0  0  0  4  0  0  0  0  0  0
    6.9171    0.0000    0.0000 O   0  0  0  0  0  2  0  0  0  0  0  0
    5.7629   -1.9936    0.0000 C   0  0  0  0  0  4  0  0  0  0  0  0
    4.6087   -1.3318    0.0000 C   0  0  0  0  0  4  0  0  0  0  0  0
    3.4626   -1.9936    0.0000 C   0  0  0  0  0  4  0  0  0  0  0  0
    2.3084   -1.3318    0.0000 C   0  0  0  0  0  4  0  0  0  0  0  0
    1.1542   -1.9936    0.0000 C   0  0  0  0  0  4  0  0  0  0  0  0
    1.1542   -3.3254    0.0000 O   0  0  0  0  0  2  0  0  0  0  0  0
    0.0000   -1.3318    0.0000 N   0  0  0  0  0  3  0  0  0  0  0  0
  1  2  1  0  0  0  0 
  2  3  2  0  0  0  0 
  2  4  1  0  0  0  0 
  4  5  1  0  0  0  0 
  5  6  1  0  0  0  0 
  6  7  1  0  0  0  0 
  7  8  1  0  0  0  0 
  8  9  2  0  0  0  0 
  8 10  1  0  0  0  0 
M  END
> <CDK Fingerprint>
AgCAAAABAAAAACAAAAAAAEAAAAAAAAAAAQEAYAAAAAAAAAAAAAAAACAAAAAAAAAAAAAAIEAAAAAAAAAAAAAAQAAAAAAAAAAAAAAAAAAAAAAAAAAAAAAAAAAAQAAAAQAAAIAIAAAQAAEAAAAAAFAAAAAAAAAEAgAA

> <ActivityOutcome_CPDBAS_Rat>
inactive

$$$$

  CDK     0721101957

 18 19  0  0  0  0  0  0  0  0999 V2000
    3.2539   -3.5908    0.0000 C   0  0  0  0  0  4  0  0  0  0  0  0
    3.2539   -2.2609    0.0000 C   0  0  0  0  0  4  0  0  0  0  0  0
    4.4065   -1.5871    0.0000 C   0  0  0  0  0  4  0  0  0  0  0  0
    4.4065   -4.2469    0.0000 O   0  0  0  0  0  2  0  0  0  0  0  0
    2.1190   -4.2469    0.0000 N   0  0  0  0  0  3  0  0  0  0  0  0
    1.9683   -0.2660    0.0000 O   0  0  0  0  0  2  0  0  0  0  0  0
    0.6738    0.0000    0.0000 C   0  0  0  0  0  4  0  0  0  0  0  0
    2.1190   -1.5871    0.0000 C   0  0  0  0  0  4  0  0  0  0  0  0
    0.0000   -1.1526    0.0000 C   0  0  0  0  0  4  0  0  0  0  0  0
    0.8955   -2.1279    0.0000 C   0  0  0  0  0  4  0  0  0  0  0  0
    5.7098   -3.5908    0.0000 O   0  0  0  0  0  2  0  0  0  0  0  0
    7.0043   -3.8568    0.0000 C   0  0  0  0  0  4  0  0  0  0  0  0
    5.5591   -2.2609    0.0000 C   0  0  0  0  0  4  0  0  0  0  0  0
    7.6781   -2.7042    0.0000 C   0  0  0  0  0  4  0  0  0  0  0  0
    6.7827   -1.7112    0.0000 C   0  0  0  0  0  4  0  0  0  0  0  0
    7.5540   -5.0803    0.0000 N   0  0  0  0  0  4  0  0  0  0  0  0
    6.7649   -6.1532    0.0000 O   0  0  0  0  0  1  0  0  0  0  0  0
    8.8662   -5.2045    0.0000 O   0  0  0  0  0  2  0  0  0  0  0  0
  1  2  1  0  0  0  0 
  1  5  1  0  0  0  0 
  1  4  2  0  0  0  0 
  2  3  2  0  0  0  0 
  2  8  1  0  0  0  0 
  3 13  1  0  0  0  0 
  6  7  1  0  0  0  0 
  6  8  1  0  0  0  0 
  7  9  2  0  0  0  0 
  8 10  2  0  0  0  0 
  9 10  1  0  0  0  0 
 11 12  1  0  0  0  0 
 11 13  1  0  0  0  0 
 12 14  2  0  0  0  0 
 12 16  1  0  0  0  0 
 13 15  2  0  0  0  0 
 14 15  1  0  0  0  0 
 16 17  1  0  0  0  0 
 16 18  2  0  0  0  0 
M  CHG  1  16   1
M  CHG  1  17  -1
M  END
> <CDK Fingerprint>
EkACABILBaFiABg5AgHAQBRKKAABAJDhEAAYQAAMBBQDAhBgAEQABEBQAAEAAQCgIEAACAIIVABBQAiAUASCAAAQBKAAQBgAMAAgAEQMgEoAAAKAUCCEAECAAAAgA8AEIABEEBQgBAAAAHIQYJAEAQgAlQAC8SgAsIIEBQACAEA=

> <ActivityOutcome_CPDBAS_Rat>
active

> <TD50_Rat_mmol>
0.118

$$$$

  CDK     0721101957

 23 27  0  0  0  0  0  0  0  0999 V2000
    5.7454   -4.6535    0.0000 C   0  0  0  0  0  4  0  0  0  0  0  0
    4.5929   -3.9863    0.0000 C   0  0  0  0  0  4  0  0  0  0  0  0
    4.5929   -2.6604    0.0000 C   0  0  0  0  0  4  0  0  0  0  0  0
    3.4403   -1.9931    0.0000 C   0  0  0  0  0  4  0  0  0  0  0  0
    2.2878   -2.6604    0.0000 C   0  0  0  0  0  4  0  0  0  0  0  0
    2.2878   -3.9863    0.0000 C   0  0  0  0  0  4  0  0  0  0  0  0
    3.4403   -4.6535    0.0000 O   0  0  0  0  0  2  0  0  0  0  0  0
    1.1352   -4.6535    0.0000 O   0  0  0  0  0  2  0  0  0  0  0  0
    1.2999   -1.7678    0.0000 C   0  0  0  0  0  4  0  0  0  0  0  0
    0.0000   -2.0451    0.0000 O   0  0  0  0  0  2  0  0  0  0  0  0
    1.8458   -0.5546    0.0000 C   0  0  0  0  0  4  0  0  0  0  0  0
    3.1630   -0.6933    0.0000 C   0  0  0  0  0  4  0  0  0  0  0  0
    5.7454   -1.9931    0.0000 C   0  0  0  0  0  4  0  0  0  0  0  0
    6.8980   -2.6604    0.0000 C   0  0  0  0  0  4  0  0  0  0  0  0
    6.8980   -3.9863    0.0000 C   0  0  0  0  0  4  0  0  0  0  0  0
    7.8859   -4.8788    0.0000 O   0  0  0  0  0  2  0  0  0  0  0  0
    7.3399   -6.0921    0.0000 C   0  0  0  0  0  4  0  0  0  0  0  0
    6.0227   -5.9534    0.0000 C   0  0  0  0  0  4  0  0  0  0  0  0
    5.4768   -7.1666    0.0000 C   0  0  0  0  0  4  0  0  0  0  0  0
    6.4647   -8.0592    0.0000 C   0  0  0  0  0  4  0  0  0  0  0  0
    7.6172   -7.3919    0.0000 O   0  0  0  0  0  2  0  0  0  0  0  0
    5.7454   -0.6673    0.0000 O   0  0  0  0  0  2  0  0  0  0  0  0
    6.8980    0.0000    0.0000 C   0  0  0  0  0  4  0  0  0  0  0  0
  1  2  1  0  0  0  0 
  1 15  2  0  0  0  0 
  1 18  1  0  0  0  0 
  2  3  2  0  0  0  0 
  2  7  1  0  0  0  0 
  3  4  1  0  0  0  0 
  3 13  1  0  0  0  0 
  4  5  2  0  0  0  0 
  4 12  1  0  0  0  0 
  5  6  1  0  0  0  0 
  5  9  1  0  0  0  0 
  6  7  1  0  0  0  0 
  6  8  2  0  0  0  0 
  9 10  1  6  0  0  0 
  9 11  1  0  0  0  0 
 11 12  1  0  0  0  0 
 13 14  2  0  0  0  0 
 13 22  1  0  0  0  0 
 14 15  1  0  0  0  0 
 15 16  1  0  0  0  0 
 16 17  1  0  0  0  0 
 17 18  1  0  0  0  0 
 17 21  1  0  0  0  0 
 18 19  1  0  0  0  0 
 19 20  2  0  0  0  0 
 20 21  1  0  0  0  0 
 22 23  1  0  0  0  0 
M  END
> <CDK Fingerprint>
GGgCKRYDB4RAoBASFzCSRBJokhJUpTvoyEQO4sIKRwVLHW5hmlgqBKgAiGxosoAQMRZ0IFGYcCdWWARuwFAVAhEPOCEVzwpRjZQwJmOwFf0ScQlCAZEoQAnxMdgyQoogIaJHaEEoKzQBDRAGXZAMB3U7PEyi+DoFUwEwZWYoaAg=

> <ActivityOutcome_CPDBAS_Rat>
active

> <TD50_Rat_mmol>
0.00000786

$$$$

  CDK     0721101957

 23 27  0  0  0  0  0  0  0  0999 V2000
    5.4986   -3.3221    0.0000 C   0  0  0  0  0  4  0  0  0  0  0  0
    4.3531   -3.9918    0.0000 C   0  0  0  0  0  4  0  0  0  0  0  0
    3.1987   -3.3221    0.0000 C   0  0  0  0  0  4  0  0  0  0  0  0
    2.0444   -3.9918    0.0000 C   0  0  0  0  0  4  0  0  0  0  0  0
    2.0444   -5.3224    0.0000 C   0  0  0  0  0  4  0  0  0  0  0  0
    3.1987   -5.9833    0.0000 C   0  0  0  0  0  4  0  0  0  0  0  0
    4.3531   -5.3224    0.0000 O   0  0  0  0  0  2  0  0  0  0  0  0
    3.1987   -7.3139    0.0000 O   0  0  0  0  0  2  0  0  0  0  0  0
    0.7843   -5.7277    0.0000 C   0  0  0  0  0  4  0  0  0  0  0  0
    0.3701   -6.9966    0.0000 O   0  0  0  0  0  2  0  0  0  0  0  0
    0.0000   -4.6527    0.0000 C   0  0  0  0  0  4  0  0  0  0  0  0
    0.7843   -3.5776    0.0000 C   0  0  0  0  0  4  0  0  0  0  0  0
    3.1987   -1.9915    0.0000 C   0  0  0  0  0  4  0  0  0  0  0  0
    4.3531   -1.3306    0.0000 C   0  0  0  0  0  4  0  0  0  0  0  0
    5.4986   -1.9915    0.0000 C   0  0  0  0  0  4  0  0  0  0  0  0
    6.7675   -1.5861    0.0000 O   0  0  0  0  0  2  0  0  0  0  0  0
    7.5430   -2.6612    0.0000 C   0  0  0  0  0  4  0  0  0  0  0  0
    6.7675   -3.7362    0.0000 C   0  0  0  0  0  4  0  0  0  0  0  0
    7.5430   -4.8113    0.0000 C   0  0  0  0  0  4  0  0  0  0  0  0
    8.8119   -4.3971    0.0000 C   0  0  0  0  0  4  0  0  0  0  0  0
    8.8119   -3.0665    0.0000 O   0  0  0  0  0  2  0  0  0  0  0  0
    2.0444   -1.3306    0.0000 O   0  0  0  0  0  2  0  0  0  0  0  0
    2.0444    0.0000    0.0000 C   0  0  0  0  0  4  0  0  0  0  0  0
  1  2  2  0  0  0  0 
  1 15  1  0  0  0  0 
  1 18  1  0  0  0  0 
  2  3  1  0  0  0  0 
  2  7  1  0  0  0  0 
  3  4  1  0  0  0  0 
  3 13  2  0  0  0  0 
  4  5  2  0  0  0  0 
  4 12  1  0  0  0  0 
  5  6  1  0  0  0  0 
  5  9  1  0  0  0  0 
  6  7  1  0  0  0  0 
  6  8  2  0  0  0  0 
  9 10  2  0  0  0  0 
  9 11  1  0  0  0  0 
 11 12  1  0  0  0  0 
 13 14  1  0  0  0  0 
 13 22  1  0  0  0  0 
 14 15  2  0  0  0  0 
 15 16  1  0  0  0  0 
 16 17  1  0  0  0  0 
 17 18  1  0  0  0  0 
 17 21  1  0  0  0  0 
 18 19  1  0  0  0  0 
 19 20  2  0  0  0  0 
 20 21  1  0  0  0  0 
 22 23  1  0  0  0  0 
M  END
> <CDK Fingerprint>
GGgiKRYCB4REgBASFzCSRBJokhJUpTroyEQO4sIKRwVLDW5hmlgqBKhAiGxosIAQMRZ0IFGYUCdWXARuwFAVAxFOGCEFzwpTjZQ4JGOyBf0ScQlCAZEoRAnxMdgyQoggIaJHaEEoKzQBCRAGXZAsB3U7PE6i/DoFQwEwbSYoaAg=

> <ActivityOutcome_CPDBAS_Rat>
active

> <TD50_Rat_mmol>
0.0000102

$$$$

  CDK     0721101957

 15 15  0  0  0  0  0  0  0  0999 V2000
    5.7597   -2.0304    0.0000 C   0  0  0  0  0  4  0  0  0  0  0  0
    1.1706   -2.0304    0.0000 C   0  0  0  0  0  4  0  0  0  0  0  0
    5.7597   -0.7148    0.0000 C   0  0  0  0  0  4  0  0  0  0  0  0
    4.6306   -2.7038    0.0000 C   0  0  0  0  0  4  0  0  0  0  0  0
    3.4807   -2.0304    0.0000 C   0  0  0  0  0  4  0  0  0  0  0  0
    0.0000   -2.7038    0.0000 O   0  0  0  0  0  2  0  0  0  0  0  0
    2.3101   -2.7038    0.0000 C   0  0  0  0  0  4  0  0  0  0  0  0
    4.6306   -0.0414    0.0000 C   0  0  0  0  0  4  0  0  0  0  0  0
    9.2094    0.0000    0.0000 C   0  0  0  0  0  4  0  0  0  0  0  0
   10.3592   -0.6526    0.0000 C   0  0  0  0  0  4  0  0  0  0  0  0
    6.9096   -2.7245    0.0000 Cl  0  0  0  0  0  1  0  0  0  0  0  0
    3.4807   -0.7148    0.0000 C   0  0  0  0  0  4  0  0  0  0  0  0
    1.1706   -0.7148    0.0000 O   0  0  0  0  0  2  0  0  0  0  0  0
    6.9096   -0.0104    0.0000 O   0  0  0  0  0  2  0  0  0  0  0  0
    8.0802   -0.6837    0.0000 C   0  0  0  0  0  4  0  0  0  0  0  0
  1  3  1  0  0  0  0 
  1  4  2  0  0  0  0 
  1 11  1  0  0  0  0 
  2  7  1  0  0  0  0 
  2  6  2  0  0  0  0 
  2 13  1  0  0  0  0 
  3  8  2  0  0  0  0 
  3 14  1  0  0  0  0 
  4  5  1  0  0  0  0 
  5  7  1  0  0  0  0 
  5 12  2  0  0  0  0 
  8 12  1  0  0  0  0 
  9 15  1  0  0  0  0 
  9 10  2  0  0  0  0 
 14 15  1  0  0  0  0 
M  END
> <CDK Fingerprint>
CUAAgAACAAQAAABCAhCABAAAAAAAIAAAgAQCAAAAAAAIAArhAAAAAAAAAAgAEAAQIAIAIACQEABAAAAMUAAAAQAOHCAAAAAAAAAQBAAABKAQUggBAAAAAAGFEAAAAoEAIQBCAMAgJCCAAAACQAAEAQEAFACAUCBAAAAAACAgQAA=

> <ActivityOutcome_CPDBAS_Rat>
inactive

$$$$

  CDK     0721101957

 12 11  0  0  0  0  0  0  0  0999 V2000
    0.8456   -0.6672    0.0000 C   0  0  0  0  0  4  0  0  0  0  0  0
    1.9938   -1.3343    0.0000 C   0  0  0  0  0  4  0  0  0  0  0  0
    3.1497   -1.9938    0.0000 C   0  0  0  0  0  4  0  0  0  0  0  0
    4.2978   -1.3343    0.0000 N   0  0  0  0  0  3  0  0  0  0  0  0
    5.4537   -1.9938    0.0000 O   0  0  0  0  0  2  0  0  0  0  0  0
    6.6019   -1.3343    0.0000 C   0  0  0  0  0  4  0  0  0  0  0  0
    6.6019    0.0000    0.0000 O   0  0  0  0  0  2  0  0  0  0  0  0
    7.7578   -1.9938    0.0000 N   0  0  0  0  0  3  0  0  0  0  0  0
    7.7578   -3.3281    0.0000 C   0  0  0  0  0  4  0  0  0  0  0  0
    1.3343   -2.4825    0.0000 S   0  0  0  0  0  2  0  0  0  0  0  0
    0.0000   -2.4825    0.0000 C   0  0  0  0  0  4  0  0  0  0  0  0
    2.6609   -0.1784    0.0000 C   0  0  0  0  0  4  0  0  0  0  0  0
  1  2  1  0  0  0  0 
  2  3  1  0  0  0  0 
  2 10  1  0  0  0  0 
  2 12  1  0  0  0  0 
  3  4  2  0  0  0  0 
  4  5  1  0  0  0  0 
  5  6  1  0  0  0  0 
  6  7  2  0  0  0  0 
  6  8  1  0  0  0  0 
  8  9  1  0  0  0  0 
 10 11  1  0  0  0  0 
M  END
> <CDK Fingerprint>
CEAAAAAAigAAAAAAEAIIEAAACAAAAAoAAAAAAEABYAEAAAQAAgAABAAAECAgAAAAAAAAAAAAAMAAAACQAQAAAAABAAAACAAAAAgAAIABAIAAIABAAAEAAABAAAABQAAAAAAAAAAAAIAAAJCAIAAAIEAAACAAABAEAgAA

> <ActivityOutcome_CPDBAS_Rat>
inactive

$$$$

  CDK     0721101957

 18 21  0  0  0  0  0  0  0  0999 V2000
    4.9955    3.4985    0.0000 C   0  0  0  0  0  4  0  0  0  0  0  0
    3.6499    3.5490    0.0000 C   0  0  0  0  0  4  0  0  0  0  0  0
    4.7600    4.9114    0.0000 C   0  0  0  0  0  4  0  0  0  0  0  0
    5.9038    2.4557    0.0000 C   0  0  0  0  0  4  0  0  0  0  0  0
    6.0888    3.9190    0.0000 Cl  0  0  0  0  0  1  0  0  0  0  0  0
    2.8930    2.2539    0.0000 C   0  0  0  0  0  4  0  0  0  0  0  0
    2.1866    2.9267    0.0000 C   0  0  0  0  0  4  0  0  0  0  0  0
    4.4236    2.2539    0.0000 C   0  0  0  0  0  4  0  0  0  0  0  0
    3.8518    5.9543    0.0000 Cl  0  0  0  0  0  1  0  0  0  0  0  0
    5.7524    5.5842    0.0000 Cl  0  0  0  0  0  1  0  0  0  0  0  0
    5.2478    1.1606    0.0000 C   0  0  0  0  0  4  0  0  0  0  0  0
    6.9971    2.7921    0.0000 Cl  0  0  0  0  0  1  0  0  0  0  0  0
    1.5474    1.7493    0.0000 C   0  0  0  0  0  4  0  0  0  0  0  0
    1.8334    0.4541    0.0000 C   0  0  0  0  0  4  0  0  0  0  0  0
    0.8074    3.5995    0.0000 C   0  0  0  0  0  4  0  0  0  0  0  0
    3.7172    0.9083    0.0000 Cl  0  0  0  0  0  1  0  0  0  0  0  0
    5.1637    0.0000    0.0000 Cl  0  0  0  0  0  1  0  0  0  0  0  0
    0.0000    2.4557    0.0000 C   0  0  0  0  0  4  0  0  0  0  0  0
  2  1  1  0  0  0  0 
  3  1  1  1  0  0  0 
  4  1  1  0  0  0  0 
  5  1  1  0  0  0  0 
  6  2  1  0  0  0  0 
  7  2  1  0  0  0  0 
  8  3  1  1  0  0  0 
  9  3  1  0  0  0  0 
 10  3  1  0  0  0  0 
 11  4  2  0  0  0  0 
 12  4  1  0  0  0  0 
 13  6  1  0  0  0  0 
  8  6  1  0  0  0  0 
 14  7  1  6  0  0  0 
 15  7  1  0  0  0  0 
 16  8  1  0  0  0  0 
 11  8  1  0  0  0  0 
 17 11  1  0  0  0  0 
 18 13  1  0  0  0  0 
 13 14  1  6  0  0  0 
 18 15  2  0  0  0  0 
M  END
> <CDK Fingerprint>
QAAAAAAAAAAAAAAgAAYAAAAgBsAEQABAEAAAAIEAAABRCNAAIAIAiAAgAAARwgCgEGIADkhQCAAKSABAAAQBAAAFhgQAgABKAAAEQAARgAAAAADAAAAAAEAARAAAAAQAQgAAAMBAAAAACAAAEAAAAAAwAAGCCAAAAABAAAAAIA==

> <ActivityOutcome_CPDBAS_Rat>
inactive

$$$$

  CDK     0721101957

 11 11  0  0  0  0  0  0  0  0999 V2000
    4.2744    0.0000    0.0000 O   0  0  0  0  0  2  0  0  0  0  0  0
    3.2901   -0.8879    0.0000 C   0  0  0  0  0  4  0  0  0  0  0  0
    3.4278   -2.2095    0.0000 C   0  0  0  0  0  4  0  0  0  0  0  0
    2.2095   -2.7532    0.0000 N   0  0  0  0  0  3  0  0  0  0  0  0
    1.3216   -1.7621    0.0000 C   0  0  0  0  0  4  0  0  0  0  0  0
    0.0000   -1.9066    0.0000 O   0  0  0  0  0  2  0  0  0  0  0  0
    1.9892   -0.6126    0.0000 N   0  0  0  0  0  3  0  0  0  0  0  0
    4.5773   -2.8771    0.0000 N   0  0  0  0  0  3  0  0  0  0  0  0
    5.7336   -2.2095    0.0000 C   0  0  0  0  0  4  0  0  0  0  0  0
    5.7336   -0.8810    0.0000 O   0  0  0  0  0  2  0  0  0  0  0  0
    6.8831   -2.8771    0.0000 N   0  0  0  0  0  3  0  0  0  0  0  0
  1  2  2  0  0  0  0 
  2  3  1  0  0  0  0 
  2  7  1  0  0  0  0 
  3  4  1  0  0  0  0 
  3  8  1  0  0  0  0 
  4  5  1  0  0  0  0 
  5  6  2  0  0  0  0 
  5  7  1  0  0  0  0 
  8  9  1  0  0  0  0 
  9 10  2  0  0  0  0 
  9 11  1  0  0  0  0 
M  END
> <CDK Fingerprint>
IAAAEAAAAhAAQgABAAAAABAAAAACAAAAAAACAAAAAAABYAAABMAAAAAAAIABQCABAAAAwAAAAAAEAIAAAACAAAAAAAQBAAAAAAABwACACAAAAAAAAAAAAAAAAAAAAAAAQAAAAAAAAAAAAAAAIACAAEBAAFBAAAEAAAAAAgAA

> <ActivityOutcome_CPDBAS_Rat>
inactive

$$$$

  CDK     0721101957

  4  3  0  0  0  0  0  0  0  0999 V2000
    0.0000    0.0000    0.0000 C   0  0  0  0  0  4  0  0  0  0  0  0
    1.1513   -0.6638    0.0000 C   0  0  0  0  0  4  0  0  0  0  0  0
    2.3061    0.0000    0.0000 C   0  0  0  0  0  4  0  0  0  0  0  0
    3.4575   -0.6638    0.0000 O   0  0  0  0  0  2  0  0  0  0  0  0
  1  2  2  0  0  0  0 
  2  3  1  0  0  0  0 
  3  4  1  0  0  0  0 
M  END
> <CDK Fingerprint>
QAAAAAAAAAAAAAIAAAAAAAAAAAAAAAAAAAAAAAAAAAAAAGAAAAAAAAAAAAAAAAAgAAAAABAQAAAAAAAAAAAAAAAAAAAAAAAAAAAAAAAAAAAAAAAAAAAAAAAQAAAAAAAAAAAAAAAAAAAAAAAAAAAAAAAAAAAAAAAAAAAAAAAAAA==

> <ActivityOutcome_CPDBAS_Rat>
inactive

$$$$

  CDK     0721101957

  4  3  0  0  0  0  0  0  0  0999 V2000
    0.0000    0.0000    0.0000 C   0  0  0  0  0  4  0  0  0  0  0  0
    1.1513   -0.6638    0.0000 C   0  0  0  0  0  4  0  0  0  0  0  0
    2.3061    0.0000    0.0000 C   0  0  0  0  0  4  0  0  0  0  0  0
    3.4575   -0.6638    0.0000 Cl  0  0  0  0  0  1  0  0  0  0  0  0
  1  2  2  0  0  0  0 
  2  3  1  0  0  0  0 
  3  4  1  0  0  0  0 
M  END
> <CDK Fingerprint>
QAAAAAAAAAAAAAAAAAAAAAAAAAAAAAAAAAAAAIAAAAAAAMAAAAAAAAAAAAAAAAAgAAAAAgAQAAAAAAAAAAABAAAAAAAAAAAAAAAAAAAAAAAAAAAAAAAAAAAAAAAAAAAAAAAAAAAAAAAAAAAAAAAAAAAAAAAAAAAAAAAAAAAAAA==

> <ActivityOutcome_CPDBAS_Rat>
unspecified

$$$$

  CDK     0721101957

  8  8  0  0  0  0  0  0  0  0999 V2000
    0.0000   -1.8149    0.0000 C   0  0  0  0  0  4  0  0  0  0  0  0
    1.1485   -1.1485    0.0000 C   0  0  0  0  0  4  0  0  0  0  0  0
    2.3041   -1.8149    0.0000 C   0  0  0  0  0  4  0  0  0  0  0  0
    3.4526   -1.1485    0.0000 O   0  0  0  0  0  2  0  0  0  0  0  0
    4.6082   -1.8149    0.0000 C   0  0  0  0  0  4  0  0  0  0  0  0
    5.7567   -1.1485    0.0000 C   0  0  0  0  0  4  0  0  0  0  0  0
    6.4231    0.0000    0.0000 C   0  0  0  0  0  4  0  0  0  0  0  0
    7.0895   -1.1485    0.0000 O   0  0  0  0  0  2  0  0  0  0  0  0
  1  2  2  0  0  0  0 
  2  3  1  0  0  0  0 
  3  4  1  0  0  0  0 
  4  5  1  0  0  0  0 
  5  6  1  0  0  0  0 
  6  7  1  0  0  0  0 
  6  8  1  0  0  0  0 
  7  8  1  0  0  0  0 
M  END
> <CDK Fingerprint>
ANAAAAAAAAAAAAACAAAAAAAAAAAAAAAAgBAAAQEAAAAAAABgAIAAAAAgAAAAAAAYJAIAAAAQEAAAAAAAQAAAAAAAAAAAAAAAAAAAAAAAAAAAAAAAACAAQAAAEAACAEIAAAAAAAAAAAAAAAAAAAAAAAEAAAAAACAAAAAAAAAAgAA=

> <ActivityOutcome_CPDBAS_Rat>
inactive

$$$$

  CDK     0721101957

  6  5  0  0  0  0  0  0  0  0999 V2000
    0.0000   -0.6684    0.0000 C   0  0  0  0  0  4  0  0  0  0  0  0
    1.1525   -1.3311    0.0000 C   0  0  0  0  0  4  0  0  0  0  0  0
    2.3050   -0.6684    0.0000 C   0  0  0  0  0  4  0  0  0  0  0  0
    3.4575   -1.3311    0.0000 N   0  0  0  0  0  3  0  0  0  0  0  0
    4.6099   -0.6684    0.0000 C   0  0  0  0  0  4  0  0  0  0  0  0
    5.7624    0.0000    0.0000 S   0  0  0  0  0  2  0  0  0  0  0  0
  1  2  2  0  0  0  0 
  2  3  1  0  0  0  0 
  3  4  1  0  0  0  0 
  4  5  2  0  0  0  0 
  5  6  2  0  0  0  0 
M  END
> <CDK Fingerprint>
AMAAAAAAQAACAAAAAAAAAAAAAAAAAAAAAAAAAAAAAAACAAFgAAAAAAAAAAAAAAAAIAAAAAAAEAQAAAAABAAAAAAAAAAAAAAAAAAAAAAAAAAAAAAAAAAAAAAQAAAAAAAAAAAAAAAAEQAAAAAAAAAAAAAAAABAAEAAAAAAAAACAAA=

> <ActivityOutcome_CPDBAS_Rat>
active

> <TD50_Rat_mmol>
0.968

$$$$

  CDK     0721101957

 10  9  0  0  0  0  0  0  0  0999 V2000
    4.6087    0.0000    0.0000 O   0  0  0  0  0  2  0  0  0  0  0  0
    4.6087   -1.3318    0.0000 C   0  0  0  0  0  4  0  0  0  0  0  0
    5.7629   -1.9936    0.0000 C   0  0  0  0  0  4  0  0  0  0  0  0
    6.9171   -1.3318    0.0000 C   0  0  0  0  0  4  0  0  0  0  0  0
    6.9171    0.0000    0.0000 C   0  0  0  0  0  4  0  0  0  0  0  0
    8.0713   -1.9936    0.0000 C   0  0  0  0  0  4  0  0  0  0  0  0
    3.4626   -1.9936    0.0000 O   0  0  0  0  0  2  0  0  0  0  0  0
    2.3084   -1.3318    0.0000 C   0  0  0  0  0  4  0  0  0  0  0  0
    1.1542   -1.9936    0.0000 C   0  0  0  0  0  4  0  0  0  0  0  0
    0.0000   -1.3318    0.0000 C   0  0  0  0  0  4  0  0  0  0  0  0
  1  2  2  0  0  0  0 
  2  3  1  0  0  0  0 
  2  7  1  0  0  0  0 
  3  4  1  0  0  0  0 
  4  5  1  0  0  0  0 
  4  6  1  0  0  0  0 
  7  8  1  0  0  0  0 
  8  9  1  0  0  0  0 
  9 10  2  0  0  0  0 
M  END
> <CDK Fingerprint>
ANAAAAAAAABAAAACAAAAABAAAAAAAAAAgBAAAIAAAAAAAABgAIgAAAAAAAAAAABQIAIAAAAQEAAAAAAgQAAAAAAAAAAAAAAAAAAAAEAAAAAAAAAAAAAAQAAAEAAAAAAAAABAAAAAAAAAAAAAABAAAQEAAAAAUBAAAAAAAAAAAAA=

> <ActivityOutcome_CPDBAS_Rat>
active

> <TD50_Rat_mmol>
0.865

$$$$

  CDK     0721101957

  9  8  0  0  0  0  0  0  0  0999 V2000
    4.6080   -1.9953    0.0000 C   0  0  0  0  0  4  0  0  0  0  0  0
    3.4560   -2.6588    0.0000 C   0  0  0  0  0  4  0  0  0  0  0  0
    2.3040   -1.9953    0.0000 N   0  0  0  0  0  3  0  0  0  0  0  0
    2.3040   -0.6635    0.0000 C   0  0  0  0  0  4  0  0  0  0  0  0
    3.4560    0.0000    0.0000 N   0  0  0  0  0  3  0  0  0  0  0  0
    1.1520    0.0000    0.0000 O   0  0  0  0  0  2  0  0  0  0  0  0
    1.1520   -2.6588    0.0000 N   0  0  0  0  0  3  0  0  0  0  0  0
    0.0000   -1.9953    0.0000 O   0  0  0  0  0  2  0  0  0  0  0  0
    4.6080   -0.6635    0.0000 C   0  0  0  0  0  4  0  0  0  0  0  0
  1  2  1  0  0  0  0 
  1  9  2  0  0  0  0 
  2  3  1  0  0  0  0 
  3  4  1  0  0  0  0 
  3  7  1  0  0  0  0 
  4  5  1  0  0  0  0 
  4  6  2  0  0  0  0 
  7  8  2  0  0  0  0 
M  END
> <CDK Fingerprint>
QAAAAAAAAAIQAEgAAIAAAAAAAAAAAAAAAAIAAAAABAcAAGAAAAKAAAAAAAAAAQAgAAEAAAAQCAAAAgCAAAACgAAAAAAAAAAAAAAAAAAAgAAAAAAAAAAAAAAAAAAAAAAAAEQgAAEAAAAAAAAABAAAAAAAAABAAAAAAAAAAAMAAA==

> <ActivityOutcome_CPDBAS_Rat>
active

> <TD50_Rat_mmol>
0.00264

$$$$

  CDK     0721101957

 19 21  0  0  0  0  0  0  0  0999 V2000
    3.4588   -5.3212    0.0000 O   0  0  0  0  0  2  0  0  0  0  0  0
    3.4588   -3.9909    0.0000 C   0  0  0  0  0  4  0  0  0  0  0  0
    4.6036   -3.3298    0.0000 C   0  0  0  0  0  4  0  0  0  0  0  0
    5.7566   -3.9909    0.0000 C   0  0  0  0  0  4  0  0  0  0  0  0
    6.9095   -3.3298    0.0000 C   0  0  0  0  0  4  0  0  0  0  0  0
    6.9095   -1.9995    0.0000 C   0  0  0  0  0  4  0  0  0  0  0  0
    5.7566   -1.3303    0.0000 C   0  0  0  0  0  4  0  0  0  0  0  0
    4.6036   -1.9995    0.0000 C   0  0  0  0  0  4  0  0  0  0  0  0
    3.4588   -1.3303    0.0000 C   0  0  0  0  0  4  0  0  0  0  0  0
    3.4588    0.0000    0.0000 O   0  0  0  0  0  2  0  0  0  0  0  0
    2.3059   -1.9995    0.0000 C   0  0  0  0  0  4  0  0  0  0  0  0
    2.3059   -3.3298    0.0000 C   0  0  0  0  0  4  0  0  0  0  0  0
    1.1529   -3.9909    0.0000 C   0  0  0  0  0  4  0  0  0  0  0  0
    0.0000   -3.3298    0.0000 C   0  0  0  0  0  4  0  0  0  0  0  0
    0.0000   -1.9995    0.0000 C   0  0  0  0  0  4  0  0  0  0  0  0
    1.1529   -1.3303    0.0000 C   0  0  0  0  0  4  0  0  0  0  0  0
    5.7566    0.0000    0.0000 Br  0  0  0  0  0  1  0  0  0  0  0  0
    8.0624   -3.9909    0.0000 Br  0  0  0  0  0  1  0  0  0  0  0  0
    5.7566   -5.3212    0.0000 N   0  0  0  0  0  3  0  0  0  0  0  0
  1  2  2  0  0  0  0 
  2  3  1  0  0  0  0 
  2 12  1  0  0  0  0 
  3  4  2  0  0  0  0 
  3  8  1  0  0  0  0 
  4  5  1  0  0  0  0 
  4 19  1  0  0  0  0 
  5  6  2  0  0  0  0 
  5 18  1  0  0  0  0 
  6  7  1  0  0  0  0 
  7  8  2  0  0  0  0 
  7 17  1  0  0  0  0 
  8  9  1  0  0  0  0 
  9 10  2  0  0  0  0 
  9 11  1  0  0  0  0 
 11 12  2  0  0  0  0 
 11 16  1  0  0  0  0 
 12 13  1  0  0  0  0 
 13 14  2  0  0  0  0 
 14 15  1  0  0  0  0 
 15 16  2  0  0  0  0 
M  END
> <CDK Fingerprint>
AgAoECQACCIPgYAAgCAhFAEDIAACAEAAAAAABAxEAlhAAOgAQDEEAABAAQIQAQVgAAQgBAkACFAhABBAACAIAAQIAACAAUAAAAAAQQFiIQgAAADgAIYAQICEAAAJgAAgAUgAQCAACAAAACJAICQAAAAUIKAUCkEoAAAAAAISAA==

> <ActivityOutcome_CPDBAS_Rat>
active

> <TD50_Rat_mmol>
0.121

$$$$

  CDK     0721101957

 14 14  0  0  0  0  0  0  0  0999 V2000
    5.9919    0.0000    0.0000 N   0  0  0  0  0  3  0  0  0  0  0  0
    5.3210   -1.1555    0.0000 C   0  0  0  0  0  4  0  0  0  0  0  0
    5.9919   -2.3110    0.0000 C   0  0  0  0  0  4  0  0  0  0  0  0
    5.3210   -3.4572    0.0000 C   0  0  0  0  0  4  0  0  0  0  0  0
    3.9977   -3.4572    0.0000 C   0  0  0  0  0  4  0  0  0  0  0  0
    3.3268   -2.3110    0.0000 C   0  0  0  0  0  4  0  0  0  0  0  0
    3.9977   -1.1555    0.0000 C   0  0  0  0  0  4  0  0  0  0  0  0
    1.9942   -2.3110    0.0000 N   0  0  0  0  0  3  0  0  0  0  0  0
    1.3326   -3.4572    0.0000 C   0  0  0  0  0  4  0  0  0  0  0  0
    1.9942   -4.6127    0.0000 O   0  0  0  0  0  2  0  0  0  0  0  0
    0.0000   -3.4572    0.0000 C   0  0  0  0  0  4  0  0  0  0  0  0
    7.3245   -2.3110    0.0000 O   0  0  0  0  0  2  0  0  0  0  0  0
    7.9861   -3.4572    0.0000 C   0  0  0  0  0  4  0  0  0  0  0  0
    9.3187   -3.4572    0.0000 C   0  0  0  0  0  4  0  0  0  0  0  0
  1  2  1  0  0  0  0 
  2  3  2  0  0  0  0 
  2  7  1  0  0  0  0 
  3  4  1  0  0  0  0 
  3 12  1  0  0  0  0 
  4  5  2  0  0  0  0 
  5  6  1  0  0  0  0 
  6  7  2  0  0  0  0 
  6  8  1  0  0  0  0 
  8  9  1  0  0  0  0 
  9 10  2  0  0  0  0 
  9 11  1  0  0  0  0 
 12 13  1  0  0  0  0 
 13 14  1  0  0  0  0 
M  END
> <CDK Fingerprint>
MCIAgAIAEAAEAAAAAAAAAECBAAAAAATAAggAAmEIAAAAAAAACAAAAIAgAgQgAIACAEAAAIiABAAAwAqQAAAAwQCAAAAEBIAAkAABCAAAAAAAAgAQAAAAAAAgAEAABCAgIAAAAAIAAAAAAAAABIhQAFAAgBAIACIQAA==

> <ActivityOutcome_CPDBAS_Rat>
inactive

$$$$

  CDK     0721101957

 20 21  0  0  0  0  0  0  0  0999 V2000
   14.3944   -3.3539    0.0000 N   0  0  0  0  0  3  0  0  0  0  0  0
   13.1277   -2.9365    0.0000 C   0  0  0  0  0  4  0  0  0  0  0  0
   12.8542   -1.6410    0.0000 N   0  0  0  0  0  3  0  0  0  0  0  0
   12.1345   -3.8289    0.0000 N   0  0  0  0  0  3  0  0  0  0  0  0
   10.8822   -3.4259    0.0000 C   0  0  0  0  0  4  0  0  0  0  0  0
    9.8026   -4.2032    0.0000 N   0  0  0  0  0  3  0  0  0  0  0  0
    8.7230   -3.4259    0.0000 C   0  0  0  0  0  4  0  0  0  0  0  0
    7.4563   -3.8289    0.0000 C   0  0  0  0  0  4  0  0  0  0  0  0
    6.4775   -2.9365    0.0000 S   0  0  0  0  0  2  0  0  0  0  0  0
    5.2108   -3.3539    0.0000 C   0  0  0  0  0  4  0  0  0  0  0  0
    4.2176   -2.4615    0.0000 C   0  0  0  0  0  4  0  0  0  0  0  0
    2.9509   -2.8789    0.0000 N   0  0  0  0  0  3  0  0  0  0  0  0
    1.9720   -1.9864    0.0000 C   0  0  0  0  0  4  0  0  0  0  0  0
    0.6621   -2.2599    0.0000 N   0  0  0  0  0  3  0  0  0  0  0  0
    0.0000   -1.1084    0.0000 S   0  0  0  0  0  2  0  0  0  0  0  0
    0.8925   -0.1152    0.0000 N   0  0  0  0  0  3  0  0  0  0  0  0
    2.1016   -0.6621    0.0000 C   0  0  0  0  0  4  0  0  0  0  0  0
    3.2531    0.0000    0.0000 N   0  0  0  0  0  3  0  0  0  0  0  0
    9.1405   -2.1592    0.0000 C   0  0  0  0  0  4  0  0  0  0  0  0
   10.4648   -2.1592    0.0000 S   0  0  0  0  0  2  0  0  0  0  0  0
  1  2  2  0  0  0  0 
  2  3  1  0  0  0  0 
  2  4  1  0  0  0  0 
  4  5  1  0  0  0  0 
  5  6  2  0  0  0  0 
  5 20  1  0  0  0  0 
  6  7  1  0  0  0  0 
  7  8  1  0  0  0  0 
  7 19  2  0  0  0  0 
  8  9  1  0  0  0  0 
  9 10  1  0  0  0  0 
 10 11  1  0  0  0  0 
 11 12  1  0  0  0  0 
 12 13  1  0  0  0  0 
 13 14  2  0  0  0  0 
 13 17  1  0  0  0  0 
 14 15  1  0  0  0  0 
 15 16  1  0  0  0  0 
 16 17  2  0  0  0  0 
 17 18  1  0  0  0  0 
 19 20  1  0  0  0  0 
M  END
> <CDK Fingerprint>
ECICAKBOh2IxAOSAMSIZCQBAYgAlgAAAAgEgBBbCQCAgAWAEIAAEQEAAQhIAIABgBESAAAUgFdCCgCjACQABURACAAWAAAAAAAQWoGgglAAQRJCEawAIUAAEZECBgQAABCIOAChCANBAFACCAIACAiABQEABACAAQQZAAAMBCQ==

> <ActivityOutcome_CPDBAS_Rat>
active

> <TD50_Rat_mmol>
15.1

$$$$

  CDK     0721101957

 18 20  0  0  0  0  0  0  0  0999 V2000
    4.6526   -4.6047    0.0000 O   0  0  0  0  0  2  0  0  0  0  0  0
    3.9902   -3.4555    0.0000 C   0  0  0  0  0  4  0  0  0  0  0  0
    4.6526   -2.2984    0.0000 C   0  0  0  0  0  4  0  0  0  0  0  0
    5.9853   -2.2984    0.0000 C   0  0  0  0  0  4  0  0  0  0  0  0
    6.6477   -1.1492    0.0000 C   0  0  0  0  0  4  0  0  0  0  0  0
    5.9853    0.0000    0.0000 C   0  0  0  0  0  4  0  0  0  0  0  0
    4.6526    0.0000    0.0000 C   0  0  0  0  0  4  0  0  0  0  0  0
    3.9902   -1.1492    0.0000 C   0  0  0  0  0  4  0  0  0  0  0  0
    2.6575   -1.1492    0.0000 C   0  0  0  0  0  4  0  0  0  0  0  0
    1.9951    0.0000    0.0000 O   0  0  0  0  0  2  0  0  0  0  0  0
    1.9951   -2.2984    0.0000 C   0  0  0  0  0  4  0  0  0  0  0  0
    2.6575   -3.4555    0.0000 C   0  0  0  0  0  4  0  0  0  0  0  0
    1.9951   -4.6047    0.0000 C   0  0  0  0  0  4  0  0  0  0  0  0
    0.6624   -4.6047    0.0000 C   0  0  0  0  0  4  0  0  0  0  0  0
    0.0000   -3.4555    0.0000 C   0  0  0  0  0  4  0  0  0  0  0  0
    0.6624   -2.2984    0.0000 C   0  0  0  0  0  4  0  0  0  0  0  0
    7.9804   -1.1492    0.0000 C   0  0  0  0  0  4  0  0  0  0  0  0
    6.6477   -3.4555    0.0000 N   0  0  0  0  0  3  0  0  0  0  0  0
  1  2  2  0  0  0  0 
  2  3  1  0  0  0  0 
  2 12  1  0  0  0  0 
  3  4  2  0  0  0  0 
  3  8  1  0  0  0  0 
  4  5  1  0  0  0  0 
  4 18  1  0  0  0  0 
  5  6  2  0  0  0  0 
  5 17  1  0  0  0  0 
  6  7  1  0  0  0  0 
  7  8  2  0  0  0  0 
  8  9  1  0  0  0  0 
  9 10  2  0  0  0  0 
  9 11  1  0  0  0  0 
 11 12  2  0  0  0  0 
 11 16  1  0  0  0  0 
 12 13  1  0  0  0  0 
 13 14  2  0  0  0  0 
 14 15  1  0  0  0  0 
 15 16  2  0  0  0  0 
M  END
> <CDK Fingerprint>
AwAKACAAACIBgYAAgCABEAEAIAACAEAAAAAABAxsAlgAAGgAQBEGAAAAAQIAAQBwQARABAEBAEABABBAAAACABQIAACAAEAAAAAIQABiAAgAAADAAIAAQIAAAAAIgAAgAEgAQCAAAAAAACJAICQAIAAUIIIQCkEoAAAGAAISAA==

> <ActivityOutcome_CPDBAS_Rat>
active

> <TD50_Rat_mmol>
0.25

$$$$

  CDK     0721101957

 14 15  0  0  0  0  0  0  0  0999 V2000
    2.3652   -3.2915    0.0000 O   0  0  0  0  0  2  0  0  0  0  0  0
    1.1511   -2.7519    0.0000 C   0  0  0  0  0  4  0  0  0  0  0  0
    1.2950   -1.4299    0.0000 N   0  0  0  0  0  3  0  0  0  0  0  0
    2.5900   -1.1511    0.0000 N   0  0  0  0  0  3  0  0  0  0  0  0
    3.2555   -2.3022    0.0000 C   0  0  0  0  0  4  0  0  0  0  0  0
    4.5865   -2.4461    0.0000 C   0  0  0  0  0  4  0  0  0  0  0  0
    5.4768   -1.4569    0.0000 O   0  0  0  0  0  2  0  0  0  0  0  0
    6.6908   -1.9965    0.0000 C   0  0  0  0  0  4  0  0  0  0  0  0
    6.5469   -3.3184    0.0000 C   0  0  0  0  0  4  0  0  0  0  0  0
    5.2430   -3.5972    0.0000 C   0  0  0  0  0  4  0  0  0  0  0  0
    7.8419   -1.3310    0.0000 N   0  0  0  0  0  4  0  0  0  0  0  0
    7.8419    0.0000    0.0000 O   0  0  0  0  0  2  0  0  0  0  0  0
    8.9931   -1.9965    0.0000 O   0  0  0  0  0  1  0  0  0  0  0  0
    0.0000   -3.4174    0.0000 N   0  0  0  0  0  3  0  0  0  0  0  0
  1  2  1  0  0  0  0 
  1  5  1  0  0  0  0 
  2  3  2  0  0  0  0 
  2 14  1  0  0  0  0 
  3  4  1  0  0  0  0 
  4  5  2  0  0  0  0 
  5  6  1  0  0  0  0 
  6  7  1  0  0  0  0 
  6 10  2  0  0  0  0 
  7  8  1  0  0  0  0 
  8  9  2  0  0  0  0 
  8 11  1  0  0  0  0 
  9 10  1  0  0  0  0 
 11 12  2  0  0  0  0 
 11 13  1  0  0  0  0 
M  CHG  1  11   1
M  CHG  1  13  -1
M  END
> <CDK Fingerprint>
FAGAOI4BJWsIkAgAAMAgBkpgAIAAsMEQAMFBAAwABAABgPQiZAAAMBiAAABgAQAkIAQoYgABA0gAaACABIAAIWAAMCIAYWJCEAAAQAyAgBgAEgIQAEwAxIAKkCAAgARgAHwAFCAEgIgMYgBAkIKBgICBAALAAGBAAEAACAIIIA==

> <ActivityOutcome_CPDBAS_Rat>
active

> <TD50_Rat_mmol>
0.0187

$$$$

  CDK     0721101957

 14 15  0  0  0  0  0  0  0  0999 V2000
    8.4233   -3.5294    0.0000 N   0  0  0  0  0  3  0  0  0  0  0  0
    7.5389   -2.5523    0.0000 C   0  0  0  0  0  4  0  0  0  0  0  0
    6.2248   -2.6870    0.0000 S   0  0  0  0  0  2  0  0  0  0  0  0
    5.6857   -1.4825    0.0000 C   0  0  0  0  0  4  0  0  0  0  0  0
    4.3970   -1.2045    0.0000 C   0  0  0  0  0  4  0  0  0  0  0  0
    3.4957   -2.1985    0.0000 O   0  0  0  0  0  2  0  0  0  0  0  0
    2.2743   -1.4320    0.0000 C   0  0  0  0  0  4  0  0  0  0  0  0
    1.0698   -1.9626    0.0000 N   0  0  0  0  0  4  0  0  0  0  0  0
    0.0000   -1.1877    0.0000 O   0  0  0  0  0  1  0  0  0  0  0  0
    0.9266   -3.2767    0.0000 O   0  0  0  0  0  2  0  0  0  0  0  0
    2.5523   -0.1348    0.0000 C   0  0  0  0  0  4  0  0  0  0  0  0
    3.8579    0.0000    0.0000 C   0  0  0  0  0  4  0  0  0  0  0  0
    6.6713   -0.5981    0.0000 N   0  0  0  0  0  3  0  0  0  0  0  0
    7.8168   -1.2551    0.0000 N   0  0  0  0  0  3  0  0  0  0  0  0
  1  2  1  0  0  0  0 
  2  3  1  0  0  0  0 
  2 14  2  0  0  0  0 
  3  4  1  0  0  0  0 
  4  5  1  0  0  0  0 
  4 13  2  0  0  0  0 
  5  6  1  0  0  0  0 
  5 12  2  0  0  0  0 
  6  7  1  0  0  0  0 
  7  8  1  0  0  0  0 
  7 11  2  0  0  0  0 
  8  9  1  0  0  0  0 
  8 10  2  0  0  0  0 
 11 12  1  0  0  0  0 
 13 14  1  0  0  0  0 
M  CHG  1   8   1
M  CHG  1   9  -1
M  END
> <CDK Fingerprint>
IAAAADiKASVhAFAIAIDIIABKJAAAAbrBUSjEQYCNIAxAAIFgABQAAGCSgAAAcAOKJIDEYEYAAANAAiwAAASAAAFAADAiMAQAQxAAAEQNwAAQAI4CEABEAMTAJiAiAICNIgBUQBQgBIiIBDokYJCGAYCAgAACgADgIBAIAUKCIgA=

> <ActivityOutcome_CPDBAS_Rat>
active

> <TD50_Rat_mmol>
0.00312

$$$$

  CDK     0721101957

 14 15  0  0  0  0  0  0  0  0999 V2000
    5.7002   -2.7618    0.0000 C   0  0  0  0  0  4  0  0  0  0  0  0
    6.4855   -1.6853    0.0000 N   0  0  0  0  0  3  0  0  0  0  0  0
    7.7473   -2.1001    0.0000 C   0  0  0  0  0  4  0  0  0  0  0  0
    7.7473   -3.4236    0.0000 S   0  0  0  0  0  2  0  0  0  0  0  0
    6.4855   -3.8383    0.0000 C   0  0  0  0  0  4  0  0  0  0  0  0
    8.8238   -1.3147    0.0000 N   0  0  0  0  0  3  0  0  0  0  0  0
    4.3678   -2.7618    0.0000 C   0  0  0  0  0  4  0  0  0  0  0  0
    3.5825   -3.8383    0.0000 C   0  0  0  0  0  4  0  0  0  0  0  0
    2.3207   -3.4236    0.0000 C   0  0  0  0  0  4  0  0  0  0  0  0
    2.3207   -2.1001    0.0000 C   0  0  0  0  0  4  0  0  0  0  0  0
    3.5825   -1.6853    0.0000 O   0  0  0  0  0  2  0  0  0  0  0  0
    1.2442   -1.3147    0.0000 N   0  0  0  0  0  4  0  0  0  0  0  0
    0.0000   -1.7912    0.0000 O   0  0  0  0  0  1  0  0  0  0  0  0
    1.4471    0.0000    0.0000 O   0  0  0  0  0  2  0  0  0  0  0  0
  1  2  1  0  0  0  0 
  1  5  2  0  0  0  0 
  1  7  1  0  0  0  0 
  2  3  2  0  0  0  0 
  3  4  1  0  0  0  0 
  3  6  1  0  0  0  0 
  4  5  1  0  0  0  0 
  7  8  2  0  0  0  0 
  7 11  1  0  0  0  0 
  8  9  1  0  0  0  0 
  9 10  2  0  0  0  0 
 10 11  1  0  0  0  0 
 10 12  1  0  0  0  0 
 12 13  1  0  0  0  0 
 12 14  2  0  0  0  0 
M  CHG  1  12   1
M  CHG  1  13  -1
M  END
> <CDK Fingerprint>
Bgb4wgMnYAAQCAWQkAABSqCigJEQwRABgEEELEAGgACRZIAGAARAGJQAAmEAAKQAQQACAAQGQIKAAAAGoQABRAICVAQAEgIQAIBALIhAEDACBZADBAjEoACgIIiABGABVAIVIKUA+CByAECwigIIAMBAAoEAAAAICAACAgCB

> <ActivityOutcome_CPDBAS_Rat>
active

> <TD50_Rat_mmol>
0.0277

$$$$

  CDK     0721101957

 11 11  0  0  0  0  0  0  0  0999 V2000
    0.0000   -3.4525    0.0000 O   0  0  0  0  0  2  0  0  0  0  0  0
    0.6642   -2.3037    0.0000 N   0  0  0  0  0  4  0  0  0  0  0  0
    1.9925   -2.3037    0.0000 C   0  0  0  0  0  4  0  0  0  0  0  0
    2.6567   -1.1488    0.0000 C   0  0  0  0  0  4  0  0  0  0  0  0
    3.9910   -1.1488    0.0000 C   0  0  0  0  0  4  0  0  0  0  0  0
    4.6552   -2.3037    0.0000 C   0  0  0  0  0  4  0  0  0  0  0  0
    3.9910   -3.4525    0.0000 C   0  0  0  0  0  4  0  0  0  0  0  0
    2.6567   -3.4525    0.0000 C   0  0  0  0  0  4  0  0  0  0  0  0
    5.9835   -2.3037    0.0000 O   0  0  0  0  0  2  0  0  0  0  0  0
    4.6552    0.0000    0.0000 N   0  0  0  0  0  3  0  0  0  0  0  0
    0.0000   -1.1488    0.0000 O   0  0  0  0  0  1  0  0  0  0  0  0
  1  2  2  0  0  0  0 
  2  3  1  0  0  0  0 
  2 11  1  0  0  0  0 
  3  4  2  0  0  0  0 
  3  8  1  0  0  0  0 
  4  5  1  0  0  0  0 
  5  6  2  0  0  0  0 
  5 10  1  0  0  0  0 
  6  7  1  0  0  0  0 
  6  9  1  0  0  0  0 
  7  8  2  0  0  0  0 
M  CHG  1   2   1
M  CHG  1  11  -1
M  END
> <CDK Fingerprint>
EAIAACAAAAoAAAAEAAgAAAAAGEAAAAEAAAQABgAAAmEBBAAAAAAAAAAAAAAAAAAgAgAAAEAEAAAAAAAAAAgAAAAAQACAAAAAAAiAgAABAAAAACAAAAAAAAAQAAAgAAQAACAgAABAIAIACAAAAAAAAIAAABAAAAAAAAIQAA==

> <ActivityOutcome_CPDBAS_Rat>
active

> <TD50_Rat_mmol>
5.44

$$$$

  CDK     0721101957

 11 11  0  0  0  0  0  0  0  0999 V2000
    0.0000   -3.4525    0.0000 O   0  0  0  0  0  2  0  0  0  0  0  0
    0.6642   -2.3037    0.0000 N   0  0  0  0  0  4  0  0  0  0  0  0
    1.9925   -2.3037    0.0000 C   0  0  0  0  0  4  0  0  0  0  0  0
    2.6567   -1.1488    0.0000 C   0  0  0  0  0  4  0  0  0  0  0  0
    3.9910   -1.1488    0.0000 C   0  0  0  0  0  4  0  0  0  0  0  0
    4.6552   -2.3037    0.0000 C   0  0  0  0  0  4  0  0  0  0  0  0
    3.9910   -3.4525    0.0000 C   0  0  0  0  0  4  0  0  0  0  0  0
    2.6567   -3.4525    0.0000 C   0  0  0  0  0  4  0  0  0  0  0  0
    5.9835   -2.3037    0.0000 N   0  0  0  0  0  3  0  0  0  0  0  0
    4.6552    0.0000    0.0000 O   0  0  0  0  0  2  0  0  0  0  0  0
    0.0000   -1.1488    0.0000 O   0  0  0  0  0  1  0  0  0  0  0  0
  1  2  2  0  0  0  0 
  2  3  1  0  0  0  0 
  2 11  1  0  0  0  0 
  3  4  2  0  0  0  0 
  3  8  1  0  0  0  0 
  4  5  1  0  0  0  0 
  5  6  2  0  0  0  0 
  5 10  1  0  0  0  0 
  6  7  1  0  0  0  0 
  6  9  1  0  0  0  0 
  7  8  2  0  0  0  0 
M  CHG  1   2   1
M  CHG  1  11  -1
M  END
> <CDK Fingerprint>
EAIAACAAAAoAAAAAAAgAAAAAGEAQAAEAAAQABgAAAmEAhAIACAAAAAAAAAAAAAAgAgAAAEAEAAAAAAAAAAgAAAAAQACAAAAAAAiAgAAAAAAAABAAAAAAAAAQAAAgAAQAACAgAABAIAIAEAAAAAAAAIAAAAAAAAAAAAIQAA==

> <ActivityOutcome_CPDBAS_Rat>
active

> <TD50_Rat_mmol>
0.72

$$$$

  CDK     0721101957

 11 11  0  0  0  0  0  0  0  0999 V2000
    1.9968   -4.6079    0.0000 O   0  0  0  0  0  2  0  0  0  0  0  0
    2.6577   -3.4583    0.0000 C   0  0  0  0  0  4  0  0  0  0  0  0
    1.9968   -2.3039    0.0000 C   0  0  0  0  0  4  0  0  0  0  0  0
    2.6577   -1.1543    0.0000 C   0  0  0  0  0  4  0  0  0  0  0  0
    3.9889   -1.1543    0.0000 C   0  0  0  0  0  4  0  0  0  0  0  0
    4.6544   -2.3039    0.0000 C   0  0  0  0  0  4  0  0  0  0  0  0
    3.9889   -3.4583    0.0000 C   0  0  0  0  0  4  0  0  0  0  0  0
    4.6544    0.0000    0.0000 N   0  0  0  0  0  3  0  0  0  0  0  0
    0.6656   -2.3039    0.0000 N   0  0  0  0  0  4  0  0  0  0  0  0
    0.0000   -3.4583    0.0000 O   0  0  0  0  0  2  0  0  0  0  0  0
    0.0000   -1.1543    0.0000 O   0  0  0  0  0  1  0  0  0  0  0  0
  1  2  1  0  0  0  0 
  2  3  2  0  0  0  0 
  2  7  1  0  0  0  0 
  3  4  1  0  0  0  0 
  3  9  1  0  0  0  0 
  4  5  2  0  0  0  0 
  5  6  1  0  0  0  0 
  5  8  1  0  0  0  0 
  6  7  2  0  0  0  0 
  9 10  2  0  0  0  0 
  9 11  1  0  0  0  0 
M  CHG  1   9   1
M  CHG  1  11  -1
M  END
> <CDK Fingerprint>
EAIAACAAQAoAAAAEAAgAAAAAGEAAAAAAAAQABgAAAmEBBAAAAAAAACAAAAAAAAAgAgAAAEAEAAAAAAAAAAgAABAAQACAAAAAAAiAgAABAAAAACAAAAAAAAAQAAAgAAQAACAgAABAIAIAAAAAAAAAAIAAABAAAAAAAAIwAA==

> <ActivityOutcome_CPDBAS_Rat>
active

> <TD50_Rat_mmol>
2

$$$$

  CDK     0721101957

  9  9  0  0  0  0  0  0  0  0999 V2000
    5.1188   -0.2969    0.0000 O   0  0  0  0  0  2  0  0  0  0  0  0
    4.4533   -1.4486    0.0000 N   0  0  0  0  0  4  0  0  0  0  0  0
    3.1225   -1.4486    0.0000 C   0  0  0  0  0  4  0  0  0  0  0  0
    2.3393   -2.5236    0.0000 C   0  0  0  0  0  4  0  0  0  0  0  0
    1.0749   -2.1141    0.0000 N   0  0  0  0  0  3  0  0  0  0  0  0
    1.0749   -0.7832    0.0000 C   0  0  0  0  0  4  0  0  0  0  0  0
    2.3393   -0.3737    0.0000 S   0  0  0  0  0  2  0  0  0  0  0  0
    0.0000    0.0000    0.0000 N   0  0  0  0  0  3  0  0  0  0  0  0
    5.1188   -2.6003    0.0000 O   0  0  0  0  0  1  0  0  0  0  0  0
  1  2  2  0  0  0  0 
  2  3  1  0  0  0  0 
  2  9  1  0  0  0  0 
  3  4  2  0  0  0  0 
  3  7  1  0  0  0  0 
  4  5  1  0  0  0  0 
  5  6  2  0  0  0  0 
  6  7  1  0  0  0  0 
  6  8  1  0  0  0  0 
M  CHG  1   2   1
M  CHG  1   9  -1
M  END
> <CDK Fingerprint>
AiIQiAIEQAAACAAAAAABAQAAAAEQCAAgAAAEBEIEAAABYAQAAAABAAAAAgAAAAAAQIACAAAAQIKAAAgAAAABCAIAAgAABAAAAABAAAAAAAAAAAABAAAAAAAiAAAAAAAABCAEAABAgAAwApAAACIAAABAAAAAAAAAAABABgAA

> <ActivityOutcome_CPDBAS_Rat>
active

> <TD50_Rat_mmol>
0.307

$$$$

  CDK     0721101957

 17 19  0  0  0  0  0  0  0  0999 V2000
    3.3283    0.0000    0.0000 O   0  0  0  0  0  2  0  0  0  0  0  0
    3.9907   -1.1493    0.0000 C   0  0  0  0  0  4  0  0  0  0  0  0
    3.3283   -2.2987    0.0000 C   0  0  0  0  0  4  0  0  0  0  0  0
    1.9954   -2.2987    0.0000 C   0  0  0  0  0  4  0  0  0  0  0  0
    1.3329   -3.4560    0.0000 C   0  0  0  0  0  4  0  0  0  0  0  0
    1.9954   -4.6053    0.0000 C   0  0  0  0  0  4  0  0  0  0  0  0
    3.3283   -4.6053    0.0000 C   0  0  0  0  0  4  0  0  0  0  0  0
    3.9907   -3.4560    0.0000 C   0  0  0  0  0  4  0  0  0  0  0  0
    5.3236   -3.4560    0.0000 C   0  0  0  0  0  4  0  0  0  0  0  0
    5.9861   -4.6053    0.0000 O   0  0  0  0  0  2  0  0  0  0  0  0
    5.9861   -2.2987    0.0000 C   0  0  0  0  0  4  0  0  0  0  0  0
    5.3236   -1.1493    0.0000 C   0  0  0  0  0  4  0  0  0  0  0  0
    5.9861    0.0000    0.0000 C   0  0  0  0  0  4  0  0  0  0  0  0
    7.3190    0.0000    0.0000 C   0  0  0  0  0  4  0  0  0  0  0  0
    7.9814   -1.1493    0.0000 C   0  0  0  0  0  4  0  0  0  0  0  0
    7.3190   -2.2987    0.0000 C   0  0  0  0  0  4  0  0  0  0  0  0
    0.0000   -3.4560    0.0000 N   0  0  0  0  0  3  0  0  0  0  0  0
  1  2  2  0  0  0  0 
  2  3  1  0  0  0  0 
  2 12  1  0  0  0  0 
  3  4  2  0  0  0  0 
  3  8  1  0  0  0  0 
  4  5  1  0  0  0  0 
  5  6  2  0  0  0  0 
  5 17  1  0  0  0  0 
  6  7  1  0  0  0  0 
  7  8  2  0  0  0  0 
  8  9  1  0  0  0  0 
  9 10  2  0  0  0  0 
  9 11  1  0  0  0  0 
 11 12  2  0  0  0  0 
 11 16  1  0  0  0  0 
 12 13  1  0  0  0  0 
 13 14  2  0  0  0  0 
 14 15  1  0  0  0  0 
 15 16  2  0  0  0  0 
M  END
> <CDK Fingerprint>
CAAAAAAgAYGAAIBgARBBACAAAABBAAAAAAAMRAIYAABoAEARBgAAAAEiAAEAIAQEACABAABAAQAQQAAAAAAECAAAgABAAAAAAEAAYAAIAAAAwACAAACAAAAACIAAIABIAEAgAAAAAAACQCAEAAAAFACAEApBCAAAAAACEAA=

> <ActivityOutcome_CPDBAS_Rat>
active

> <TD50_Rat_mmol>
0.452

$$$$

  CDK     0721101957

 17 18  0  0  0  0  0  0  0  0999 V2000
    2.6631    0.0000    0.0000 C   0  0  0  0  0  4  0  0  0  0  0  0
    1.9948   -1.1570    0.0000 C   0  0  0  0  0  4  0  0  0  0  0  0
    2.6631   -2.3040    0.0000 C   0  0  0  0  0  4  0  0  0  0  0  0
    1.9948   -3.4610    0.0000 C   0  0  0  0  0  4  0  0  0  0  0  0
    0.6683   -3.4610    0.0000 C   0  0  0  0  0  4  0  0  0  0  0  0
    0.0000   -2.3040    0.0000 C   0  0  0  0  0  4  0  0  0  0  0  0
    0.6683   -1.1570    0.0000 C   0  0  0  0  0  4  0  0  0  0  0  0
    3.9896   -2.3040    0.0000 N   0  0  0  0  0  3  0  0  0  0  0  0
    4.6579   -3.4610    0.0000 N   0  0  0  0  0  3  0  0  0  0  0  0
    5.9844   -3.4610    0.0000 C   0  0  0  0  0  4  0  0  0  0  0  0
    6.6527   -2.3040    0.0000 C   0  0  0  0  0  4  0  0  0  0  0  0
    7.9793   -2.3040    0.0000 C   0  0  0  0  0  4  0  0  0  0  0  0
    8.6475   -3.4610    0.0000 C   0  0  0  0  0  4  0  0  0  0  0  0
    7.9793   -4.6080    0.0000 C   0  0  0  0  0  4  0  0  0  0  0  0
    6.6527   -4.6080    0.0000 C   0  0  0  0  0  4  0  0  0  0  0  0
    9.9741   -3.4610    0.0000 N   0  0  0  0  0  3  0  0  0  0  0  0
    8.6475   -1.1570    0.0000 C   0  0  0  0  0  4  0  0  0  0  0  0
  1  2  1  0  0  0  0 
  2  3  2  0  0  0  0 
  2  7  1  0  0  0  0 
  3  4  1  0  0  0  0 
  3  8  1  0  0  0  0 
  4  5  2  0  0  0  0 
  5  6  1  0  0  0  0 
  6  7  2  0  0  0  0 
  8  9  2  0  0  0  0 
  9 10  1  0  0  0  0 
 10 11  2  0  0  0  0 
 10 15  1  0  0  0  0 
 11 12  1  0  0  0  0 
 12 13  2  0  0  0  0 
 12 17  1  0  0  0  0 
 13 14  1  0  0  0  0 
 13 16  1  0  0  0  0 
 14 15  2  0  0  0  0 
M  END
> <CDK Fingerprint>
QAAiAAAAAAAAAQIAAAABAARAEABACABEABIAAABoEAAAAAAAAAAIAEEAYAAAAAAAAABAAAAAIAAAEBAEAAIAAAABoAAAAQAAAAAAAgAAAAAAAACgAAAEAIEAIAAAAEAgAAAgAAACQAAACABAAACAEAIAAAAQAAADEAA=

> <ActivityOutcome_CPDBAS_Rat>
active

> <TD50_Rat_mmol>
0.0179

$$$$

  CDK     0721101957

  9  8  0  0  0  0  0  0  0  0999 V2000
    0.0000    0.0000    0.0000 O   0  0  0  0  0  2  0  0  0  0  0  0
    1.1544   -0.6620    0.0000 C   0  0  0  0  0  4  0  0  0  0  0  0
    1.1544   -1.9939    0.0000 O   0  0  0  0  0  2  0  0  0  0  0  0
    2.3088    0.0000    0.0000 C   0  0  0  0  0  4  0  0  0  0  0  0
    3.4632   -0.6620    0.0000 C   0  0  0  0  0  4  0  0  0  0  0  0
    4.6095    0.0000    0.0000 C   0  0  0  0  0  4  0  0  0  0  0  0
    5.7639   -0.6620    0.0000 C   0  0  0  0  0  4  0  0  0  0  0  0
    6.9183    0.0000    0.0000 C   0  0  0  0  0  4  0  0  0  0  0  0
    8.0727   -0.6620    0.0000 N   0  0  0  0  0  3  0  0  0  0  0  0
  1  2  1  0  0  0  0 
  2  3  2  0  0  0  0 
  2  4  1  0  0  0  0 
  4  5  1  0  0  0  0 
  5  6  1  0  0  0  0 
  6  7  1  0  0  0  0 
  7  8  1  0  0  0  0 
  8  9  1  0  0  0  0 
M  END
> <CDK Fingerprint>
AgCAAgQBAAAAAAAAAAAAAEAAAAAAAAAAAQEAYAAAAAAAAAAAAAAAECAAIAAAAAAAAAAAIEBAAAAAAAAAAAAAQAAAAAAAAAAAAAAAAAAAAAAAABAAAAAAAAAAQAAAAQAAAAAIAAAQAAEAAAAAAFAQAAAAAAAEAgAA

> <ActivityOutcome_CPDBAS_Rat>
inactive

$$$$

  CDK     0721101957

 12 12  0  0  0  0  0  0  0  0999 V2000
    4.0663   -4.2139    0.0000 N   0  0  0  0  0  3  0  0  0  0  0  0
    3.6134   -2.9635    0.0000 C   0  0  0  0  0  4  0  0  0  0  0  0
    2.3039   -2.7322    0.0000 C   0  0  0  0  0  4  0  0  0  0  0  0
    2.7568   -1.4818    0.0000 C   0  0  0  0  0  4  0  0  0  0  0  0
    4.0663   -1.2504    0.0000 C   0  0  0  0  0  4  0  0  0  0  0  0
    4.9228   -2.2694    0.0000 O   0  0  0  0  0  2  0  0  0  0  0  0
    4.5241    0.0000    0.0000 O   0  0  0  0  0  2  0  0  0  0  0  0
    2.3039   -4.0613    0.0000 C   0  0  0  0  0  4  0  0  0  0  0  0
    1.1519   -4.7259    0.0000 C   0  0  0  0  0  4  0  0  0  0  0  0
    0.0000   -4.0613    0.0000 C   0  0  0  0  0  4  0  0  0  0  0  0
    0.0000   -2.7322    0.0000 C   0  0  0  0  0  4  0  0  0  0  0  0
    1.1519   -2.0676    0.0000 C   0  0  0  0  0  4  0  0  0  0  0  0
  1  2  1  0  0  0  0 
  2  3  1  0  0  0  0 
  3  4  1  0  0  0  0 
  3  8  1  0  0  0  0 
  3 12  1  0  0  0  0 
  4  5  1  0  0  0  0 
  5  6  2  0  0  0  0 
  5  7  1  0  0  0  0 
  8  9  1  0  0  0  0 
  9 10  1  0  0  0  0 
 10 11  1  0  0  0  0 
 11 12  1  0  0  0  0 
M  END
> <CDK Fingerprint>
AgAAAhEBAAAAAAAAAAAAAEAAAAAAAAAABQEAYAAAAAAAAAAAIAAAECAAIgAAAAAAAAAAIEBAAAAAAAAAAAAAQAAABAAAAAEAAAAAAAAAAAAAABAAAAAAAAAAQAAAAUAAACAIAAAQAAEAAAAAAFAQAAAAAAAEAgAA

> <ActivityOutcome_CPDBAS_Rat>
active

> <TD50_Rat_mmol>
34.2

$$$$

  CDK     0721101957

  6  6  0  0  0  0  0  0  0  0999 V2000
    1.3304   -1.0738    0.0000 C   0  0  0  0  0  4  0  0  0  0  0  0
    2.1104    0.0000    0.0000 N   0  0  0  0  0  3  0  0  0  0  0  0
    3.3767   -0.4086    0.0000 C   0  0  0  0  0  4  0  0  0  0  0  0
    3.3767   -1.7390    0.0000 N   0  0  0  0  0  3  0  0  0  0  0  0
    2.1104   -2.1509    0.0000 N   0  0  0  0  0  3  0  0  0  0  0  0
    0.0000   -1.0738    0.0000 N   0  0  0  0  0  3  0  0  0  0  0  0
  1  2  1  0  0  0  0 
  1  5  2  0  0  0  0 
  1  6  1  0  0  0  0 
  2  3  2  0  0  0  0 
  3  4  1  0  0  0  0 
  4  5  1  0  0  0  0 
M  END
> <CDK Fingerprint>
AgCIAgQAAAAAAAAAAABAAAAAAAAAAAAAQAAIAAAAAABgAAAAAAAAAAAAAAAAAAAAAAAAAAAAAAAAAAAAAAEAAAAAAAAAAAAAAAAEAAAAAAACAAEAACAAAAAAAAAAAAAAAAAAABAAAAAAGAAAAAAAAAAAAAAgAAAAAAACCAA=

> <ActivityOutcome_CPDBAS_Rat>
active

> <TD50_Rat_mmol>
0.118

$$$$

  CDK     0721101957

 14 13  0  0  0  0  0  0  0  0999 V2000
    1.1352   -1.3403    0.0000 C   0  0  0  0  0  4  0  0  0  0  0  0
    2.2703   -2.0241    0.0000 C   0  0  0  0  0  4  0  0  0  0  0  0
    3.4055   -1.3403    0.0000 C   0  0  0  0  0  4  0  0  0  0  0  0
    4.5680   -2.0241    0.0000 C   0  0  0  0  0  4  0  0  0  0  0  0
    5.7032   -1.3403    0.0000 C   0  0  0  0  0  4  0  0  0  0  0  0
    6.8383   -2.0241    0.0000 C   0  0  0  0  0  4  0  0  0  0  0  0
    7.9735   -1.3403    0.0000 C   0  0  0  0  0  4  0  0  0  0  0  0
    9.1086   -2.0241    0.0000 C   0  0  0  0  0  4  0  0  0  0  0  0
   10.2712   -1.3403    0.0000 C   0  0  0  0  0  4  0  0  0  0  0  0
   11.4063   -2.0241    0.0000 C   0  0  0  0  0  4  0  0  0  0  0  0
   12.5415   -1.3403    0.0000 C   0  0  0  0  0  4  0  0  0  0  0  0
    1.1352    0.0000    0.0000 O   0  0  0  0  0  2  0  0  0  0  0  0
    0.0000   -2.0241    0.0000 O   0  0  0  0  0  2  0  0  0  0  0  0
   13.6766   -2.0241    0.0000 N   0  0  0  0  0  3  0  0  0  0  0  0
  1  2  1  0  0  0  0 
  1 13  1  0  0  0  0 
  1 12  2  0  0  0  0 
  2  3  1  0  0  0  0 
  3  4  1  0  0  0  0 
  4  5  1  0  0  0  0 
  5  6  1  0  0  0  0 
  6  7  1  0  0  0  0 
  7  8  1  0  0  0  0 
  8  9  1  0  0  0  0 
  9 10  1  0  0  0  0 
 10 11  1  0  0  0  0 
 11 14  1  0  0  0  0 
M  END
> <CDK Fingerprint>
AgAAAhEBBAAAAAAAAAAAAEAAAAAAAAAAAQEAYAAAAAAAAAAAIAAAECAAIAAAAAAAAAAAIEBAAAAAAAAAAAAAQAAABAAAAAEAAAAAAAAAAAAAABAAAAAAAAAAQAAAAUAAACAIAAAQAAEAAAAAAVAQAAAAAAAEAgAA

> <ActivityOutcome_CPDBAS_Rat>
active

> <TD50_Rat_mmol>
5.46

$$$$

  CDK     0721101957

 16 16  0  0  0  0  0  0  0  0999 V2000
    3.1752   -3.9923    0.0000 O   0  0  0  0  0  2  0  0  0  0  0  0
    4.3269   -3.3308    0.0000 C   0  0  0  0  0  4  0  0  0  0  0  0
    4.3269   -2.0000    0.0000 C   0  0  0  0  0  4  0  0  0  0  0  0
    5.4787   -1.3308    0.0000 C   0  0  0  0  0  4  0  0  0  0  0  0
    5.4787    0.0000    0.0000 O   0  0  0  0  0  2  0  0  0  0  0  0
    6.6305   -2.0000    0.0000 N   0  0  0  0  0  3  0  0  0  0  0  0
    6.6305   -3.3308    0.0000 C   0  0  0  0  0  4  0  0  0  0  0  0
    7.7823   -3.9923    0.0000 O   0  0  0  0  0  2  0  0  0  0  0  0
    5.4787   -3.9923    0.0000 N   0  0  0  0  0  3  0  0  0  0  0  0
    3.0195   -2.2257    0.0000 C   0  0  0  0  0  4  0  0  0  0  0  0
    2.1635   -1.2140    0.0000 C   0  0  0  0  0  4  0  0  0  0  0  0
    0.8560   -1.4397    0.0000 C   0  0  0  0  0  4  0  0  0  0  0  0
    0.3969   -2.6927    0.0000 C   0  0  0  0  0  4  0  0  0  0  0  0
    0.0000   -0.4202    0.0000 C   0  0  0  0  0  4  0  0  0  0  0  0
    3.8756   -0.7471    0.0000 C   0  0  0  0  0  4  0  0  0  0  0  0
    2.5604   -0.5214    0.0000 C   0  0  0  0  0  4  0  0  0  0  0  0
  1  2  2  0  0  0  0 
  2  3  1  0  0  0  0 
  2  9  1  0  0  0  0 
  3  4  1  0  0  0  0 
  3 10  1  0  0  0  0 
  3 15  1  0  0  0  0 
  4  5  2  0  0  0  0 
  4  6  1  0  0  0  0 
  6  7  1  0  0  0  0 
  7  8  2  0  0  0  0 
  7  9  1  0  0  0  0 
 10 11  1  0  0  0  0 
 11 12  1  0  0  0  0 
 12 13  1  0  0  0  0 
 12 14  1  0  0  0  0 
 15 16  1  0  0  0  0 
M  END
> <CDK Fingerprint>
IgAAEAAAAhAAQAABAAAAAAAAAAAAAEAAAAAAAAAAAQEAYAAAIIAAACAAAAABQCAAQAACAAAAAAAIYsAAAACAQAAAAEABQQAAAAAAAAGAAADAACAAQAiAAAAAAAAAAAAAYAgAAQAAAAAIIAQQAAEkAEAAAFAAAAkAAAAMCgAA

> <ActivityOutcome_CPDBAS_Rat>
inactive

$$$$

  CDK     0721101957

 11 10  0  0  0  0  0  0  0  0999 V2000
    1.1536    0.0000    0.0000 O   0  0  0  0  0  2  0  0  0  0  0  0
    2.3071   -0.6696    0.0000 C   0  0  0  0  0  4  0  0  0  0  0  0
    2.3071   -2.0006    0.0000 N   0  0  0  0  0  3  0  0  0  0  0  0
    3.4607   -2.6621    0.0000 C   0  0  0  0  0  4  0  0  0  0  0  0
    4.6062   -2.0006    0.0000 C   0  0  0  0  0  4  0  0  0  0  0  0
    5.7598   -2.6621    0.0000 C   0  0  0  0  0  4  0  0  0  0  0  0
    6.9133   -2.0006    0.0000 C   0  0  0  0  0  4  0  0  0  0  0  0
    8.0669   -2.6621    0.0000 C   0  0  0  0  0  4  0  0  0  0  0  0
    1.1536   -2.6621    0.0000 N   0  0  0  0  0  3  0  0  0  0  0  0
    0.0000   -2.0006    0.0000 O   0  0  0  0  0  2  0  0  0  0  0  0
    3.4607    0.0000    0.0000 N   0  0  0  0  0  3  0  0  0  0  0  0
  1  2  2  0  0  0  0 
  2  3  1  0  0  0  0 
  2 11  1  0  0  0  0 
  3  4  1  0  0  0  0 
  3  9  1  0  0  0  0 
  4  5  1  0  0  0  0 
  5  6  1  0  0  0  0 
  6  7  1  0  0  0  0 
  7  8  1  0  0  0  0 
  9 10  2  0  0  0  0 
M  END
> <CDK Fingerprint>
AgAAAAAAAhAASAABgAABAAAAABAAAAAAAAAAAAAEBQEAYAAAAoAAAAAAAAABECAAQQACAAAAAAAAQMAAAAKAAAAAAAAAQAAAAAAAAACAAABAACAAQAAAAAAAAAAAAABARCAAAQAIAAAAIAAQAAAgAAAAAEAAAAAAAAAAAwAA

> <ActivityOutcome_CPDBAS_Rat>
active

> <TD50_Rat_mmol>
0.00349

$$$$

  CDK     0721101957

 11 11  0  0  0  0  0  0  0  0999 V2000
    0.0000    0.0000    0.0000 C   0  0  0  0  0  4  0  0  0  0  0  0
    1.3316    0.0000    0.0000 C   0  0  0  0  0  4  0  0  0  0  0  0
    1.9934   -1.1561    0.0000 C   0  0  0  0  0  4  0  0  0  0  0  0
    3.3249   -1.1561    0.0000 C   0  0  0  0  0  4  0  0  0  0  0  0
    3.9867    0.0000    0.0000 C   0  0  0  0  0  4  0  0  0  0  0  0
    5.3183    0.0000    0.0000 C   0  0  0  0  0  4  0  0  0  0  0  0
    5.9801   -1.1561    0.0000 C   0  0  0  0  0  4  0  0  0  0  0  0
    5.3183   -2.3043    0.0000 C   0  0  0  0  0  4  0  0  0  0  0  0
    3.9867   -2.3043    0.0000 C   0  0  0  0  0  4  0  0  0  0  0  0
    7.3116   -1.1561    0.0000 O   0  0  0  0  0  2  0  0  0  0  0  0
    7.9734   -2.3043    0.0000 C   0  0  0  0  0  4  0  0  0  0  0  0
  1  2  1  0  0  0  0 
  2  3  2  0  0  0  0 
  3  4  1  0  0  0  0 
  4  5  2  0  0  0  0 
  4  9  1  0  0  0  0 
  5  6  1  0  0  0  0 
  6  7  2  0  0  0  0 
  7  8  1  0  0  0  0 
  7 10  1  0  0  0  0 
  8  9  2  0  0  0  0 
 10 11  1  0  0  0  0 
M  END
> <CDK Fingerprint>
QAAAEAAAAAAAAAIAAAAAAAAAAAAAAACAAAAAAAgAAAAAAmEAQAAAAAAAAAAAABAgAAAgAAAQAEAAAACAAAAAAAYQAAACABAAAAAEAAAAgAAQAAAAAAgAAIAAAAACgAAggAAAQCAgJAAAEAJAAAgAAAAAAIAAKAAAAAAAACAAAA==

> <ActivityOutcome_CPDBAS_Rat>
inactive

$$$$

  CDK     0721101957

 16 17  0  0  0  0  0  0  0  0999 V2000
    0.0000   -3.9909    0.0000 Cl  0  0  0  0  0  1  0  0  0  0  0  0
    1.1529   -3.3297    0.0000 C   0  0  0  0  0  4  0  0  0  0  0  0
    1.1529   -1.9995    0.0000 N   0  0  0  0  0  3  0  0  0  0  0  0
    2.3058   -1.3303    0.0000 C   0  0  0  0  0  4  0  0  0  0  0  0
    3.4587   -1.9995    0.0000 N   0  0  0  0  0  3  0  0  0  0  0  0
    3.4587   -3.3297    0.0000 C   0  0  0  0  0  4  0  0  0  0  0  0
    2.3058   -3.9909    0.0000 N   0  0  0  0  0  3  0  0  0  0  0  0
    4.6036   -3.9909    0.0000 N   0  0  0  0  0  3  0  0  0  0  0  0
    5.7565   -3.3297    0.0000 C   0  0  0  0  0  4  0  0  0  0  0  0
    5.7565   -1.9995    0.0000 C   0  0  0  0  0  4  0  0  0  0  0  0
    6.9094   -1.3303    0.0000 C   0  0  0  0  0  4  0  0  0  0  0  0
    8.0623   -1.9995    0.0000 C   0  0  0  0  0  4  0  0  0  0  0  0
    8.0623   -3.3297    0.0000 C   0  0  0  0  0  4  0  0  0  0  0  0
    6.9094   -3.9909    0.0000 C   0  0  0  0  0  4  0  0  0  0  0  0
    6.9094   -5.3211    0.0000 Cl  0  0  0  0  0  1  0  0  0  0  0  0
    2.3058    0.0000    0.0000 Cl  0  0  0  0  0  1  0  0  0  0  0  0
  1  2  1  0  0  0  0 
  2  3  2  0  0  0  0 
  2  7  1  0  0  0  0 
  3  4  1  0  0  0  0 
  4  5  2  0  0  0  0 
  4 16  1  0  0  0  0 
  5  6  1  0  0  0  0 
  6  7  2  0  0  0  0 
  6  8  1  0  0  0  0 
  8  9  1  0  0  0  0 
  9 10  2  0  0  0  0 
  9 14  1  0  0  0  0 
 10 11  1  0  0  0  0 
 11 12  2  0  0  0  0 
 12 13  1  0  0  0  0 
 13 14  2  0  0  0  0 
 14 15  1  0  0  0  0 
M  END
> <CDK Fingerprint>
AQACAIAKBChAAEBAAqEIAAAQAAAAAEAEAAAAgARAAgAAAOAAAAEAAACAIgAAAAAiAAQAAAQCAEgAAASABEABQAEACRogAAAAQACAgCAAAAAAAAAAAQgAIQEAAQAAAAggAAAAgCAEEAAEIAIQAAAAAABAAIAgIAAAABAAgAIUAg==

> <ActivityOutcome_CPDBAS_Rat>
inactive

$$$$

  CDK     0721101957

  7  7  0  0  0  0  0  0  0  0999 V2000
    0.0000   -1.1496    0.0000 N   0  0  0  0  0  3  0  0  0  0  0  0
    1.3292   -1.1496    0.0000 C   0  0  0  0  0  4  0  0  0  0  0  0
    1.9958    0.0000    0.0000 C   0  0  0  0  0  4  0  0  0  0  0  0
    3.3250    0.0000    0.0000 C   0  0  0  0  0  4  0  0  0  0  0  0
    3.9916   -1.1496    0.0000 C   0  0  0  0  0  4  0  0  0  0  0  0
    3.3250   -2.3032    0.0000 C   0  0  0  0  0  4  0  0  0  0  0  0
    1.9958   -2.3032    0.0000 C   0  0  0  0  0  4  0  0  0  0  0  0
  1  2  1  0  0  0  0 
  2  3  2  0  0  0  0 
  2  7  1  0  0  0  0 
  3  4  1  0  0  0  0 
  4  5  2  0  0  0  0 
  5  6  1  0  0  0  0 
  6  7  2  0  0  0  0 
M  END
> <CDK Fingerprint>
IAAAAAAAAAAAAAAAAAAAQAAAAAAABAACAAAAYAAAAAAAAAAAAAAAAAAAAAAAAAAAQAAAAAAAAAAAAAAAAAAAAAAAAAAAAAAAAAAAAAAAAAAAAAAAAAAAACAAAAAAIAAAAAAAAgAAAAAAAAAAgAAAAAAAAAAAAhAA

> <ActivityOutcome_CPDBAS_Rat>
inactive

$$$$

  CDK     0721101957

 10 10  0  0  0  0  0  0  0  0999 V2000
    2.6582    0.0000    0.0000 N   0  0  0  0  0  3  0  0  0  0  0  0
    1.9971   -1.1499    0.0000 C   0  0  0  0  0  4  0  0  0  0  0  0
    2.6582   -2.3044    0.0000 C   0  0  0  0  0  4  0  0  0  0  0  0
    1.9971   -3.4542    0.0000 C   0  0  0  0  0  4  0  0  0  0  0  0
    0.6657   -3.4542    0.0000 C   0  0  0  0  0  4  0  0  0  0  0  0
    0.0000   -2.3044    0.0000 C   0  0  0  0  0  4  0  0  0  0  0  0
    0.6657   -1.1499    0.0000 C   0  0  0  0  0  4  0  0  0  0  0  0
    3.9896   -2.3044    0.0000 C   0  0  0  0  0  4  0  0  0  0  0  0
    4.6553   -1.1499    0.0000 O   0  0  0  0  0  2  0  0  0  0  0  0
    4.6553   -3.4542    0.0000 O   0  0  0  0  0  2  0  0  0  0  0  0
  1  2  1  0  0  0  0 
  2  3  2  0  0  0  0 
  2  7  1  0  0  0  0 
  3  4  1  0  0  0  0 
  3  8  1  0  0  0  0 
  4  5  2  0  0  0  0 
  5  6  1  0  0  0  0 
  6  7  2  0  0  0  0 
  8  9  2  0  0  0  0 
  8 10  1  0  0  0  0 
M  END
> <CDK Fingerprint>
AIAAAAAAIgCAAgAAAAAAAAAAAAAAQAAAAAAABAACQAAAaAAAAAQAAAAAAAAAAGAAAAAAAAAgQAAAAAAAAAAABAAAAAAAAAAAAAAAAAAAAAAAAAAAAAAAgBAAAACAACAAQABAIAQAAAAAAkAAAAgAgAAAgHAIQCABAAAAAhAA

> <ActivityOutcome_CPDBAS_Rat>
inactive

$$$$

  CDK     0721101957

 21 21  0  0  0  0  0  0  0  0999 V2000
    8.0682   -5.1439    0.0000 C   0  0  0  0  0  4  0  0  0  0  0  0
    8.0682   -3.8092    0.0000 C   0  0  0  0  0  4  0  0  0  0  0  0
    6.9285   -3.1493    0.0000 C   0  0  0  0  0  4  0  0  0  0  0  0
    5.7737   -3.8092    0.0000 O   0  0  0  0  0  2  0  0  0  0  0  0
    4.6190   -3.1493    0.0000 C   0  0  0  0  0  4  0  0  0  0  0  0
    3.4642   -3.8092    0.0000 C   0  0  0  0  0  4  0  0  0  0  0  0
    2.3095   -3.1493    0.0000 C   0  0  0  0  0  4  0  0  0  0  0  0
    2.3095   -1.8146    0.0000 C   0  0  0  0  0  4  0  0  0  0  0  0
    3.4642   -1.1547    0.0000 C   0  0  0  0  0  4  0  0  0  0  0  0
    4.6190   -1.8146    0.0000 C   0  0  0  0  0  4  0  0  0  0  0  0
    1.1547   -1.1547    0.0000 C   0  0  0  0  0  4  0  0  0  0  0  0
    0.0000   -0.4799    0.0000 C   0  0  0  0  0  4  0  0  0  0  0  0
    1.8146    0.0000    0.0000 C   0  0  0  0  0  4  0  0  0  0  0  0
    0.4949   -2.2945    0.0000 C   0  0  0  0  0  4  0  0  0  0  0  0
    9.2230   -3.1493    0.0000 O   0  0  0  0  0  2  0  0  0  0  0  0
   10.3777   -3.8092    0.0000 S   0  0  0  0  0  4  0  0  0  0  0  0
   10.3777   -5.1439    0.0000 O   0  0  0  0  0  2  0  0  0  0  0  0
   11.5325   -3.1493    0.0000 O   0  0  0  0  0  2  0  0  0  0  0  0
   12.6872   -3.8092    0.0000 C   0  0  0  0  0  4  0  0  0  0  0  0
   13.8420   -3.1493    0.0000 C   0  0  0  0  0  4  0  0  0  0  0  0
   14.9967   -3.8092    0.0000 Cl  0  0  0  0  0  1  0  0  0  0  0  0
  1  2  1  0  0  0  0 
  2  3  1  0  0  0  0 
  2 15  1  0  0  0  0 
  3  4  1  0  0  0  0 
  4  5  1  0  0  0  0 
  5  6  2  0  0  0  0 
  5 10  1  0  0  0  0 
  6  7  1  0  0  0  0 
  7  8  2  0  0  0  0 
  8  9  1  0  0  0  0 
  8 11  1  0  0  0  0 
  9 10  2  0  0  0  0 
 11 12  1  0  0  0  0 
 11 13  1  0  0  0  0 
 11 14  1  0  0  0  0 
 15 16  1  0  0  0  0 
 16 17  2  0  0  0  0 
 16 18  1  0  0  0  0 
 18 19  1  0  0  0  0 
 19 20  1  0  0  0  0 
 20 21  1  0  0  0  0 
M  END
> <CDK Fingerprint>
BAAAEAACAAAAAAICABAIBAAAAAAAAAAIhIACAAAUIAAICAPlAIEAAAAAAAgAAAAYIAIAIAKCAABAAAQIQAkAAwCGGCgAAAEABAAgBCAggIAAEAgCASBAQICBEAEIAMAEIAACAEAgICAAAAACQAAEQAAAFgiAACAQBAABACAoAAA=

> <ActivityOutcome_CPDBAS_Rat>
active

> <TD50_Rat_mmol>
0.289

$$$$

  CDK     0721101957

 12 12  0  0  0  0  0  0  0  0999 V2000
    3.5286   -1.7157    0.0000 C   0  0  0  0  0  4  0  0  0  0  0  0
    4.5913   -0.9308    0.0000 O   0  0  0  0  0  2  0  0  0  0  0  0
    3.9175   -2.9798    0.0000 C   0  0  0  0  0  4  0  0  0  0  0  0
    5.6610   -1.7157    0.0000 C   0  0  0  0  0  4  0  0  0  0  0  0
    5.2442   -2.9798    0.0000 C   0  0  0  0  0  4  0  0  0  0  0  0
    3.1465   -4.0565    0.0000 O   0  0  0  0  0  2  0  0  0  0  0  0
    6.0291   -4.0565    0.0000 O   0  0  0  0  0  2  0  0  0  0  0  0
    6.9460   -1.2989    0.0000 O   0  0  0  0  0  2  0  0  0  0  0  0
    2.2436   -1.2989    0.0000 C   0  0  0  0  0  4  0  0  0  0  0  0
    1.2503   -2.1810    0.0000 C   0  0  0  0  0  4  0  0  0  0  0  0
    1.9727    0.0000    0.0000 O   0  0  0  0  0  2  0  0  0  0  0  0
    0.0000   -1.7643    0.0000 O   0  0  0  0  0  2  0  0  0  0  0  0
  1  2  1  1  0  0  0 
  1  3  1  0  0  0  0 
  1  9  1  0  0  0  0 
  2  4  1  0  0  0  0 
  3  5  2  0  0  0  0 
  3  6  1  0  0  0  0 
  4  5  1  0  0  0  0 
  4  8  2  0  0  0  0 
  5  7  1  0  0  0  0 
  9 10  1  0  0  0  0 
  9 11  1  6  0  0  0 
 10 12  1  0  0  0  0 
M  END
> <CDK Fingerprint>
ANCEAQABAABAICACAAAAAAAAAAAABBUQgBIBQMEAABAAAABgBIAAAAAAAAAAAABYJBICAAAQEAAAAAABQAAAAAAAAAGFQAAAAAAAAAIgAGEQAAAAACAAQAAAEAACAEIAAABABAAAAAAAAAAAABAAAIEAAAAA8DgAdAAAQEAAAgg=

> <ActivityOutcome_CPDBAS_Rat>
inactive

$$$$

  CDK     0721101957

 21 21  0  0  0  0  0  0  0  0999 V2000
    0.0000   -4.6020    0.0000 O   0  0  0  0  0  2  0  0  0  0  0  0
    0.6609   -5.7546    0.0000 C   0  0  0  0  0  4  0  0  0  0  0  0
    1.9907   -5.7546    0.0000 C   0  0  0  0  0  4  0  0  0  0  0  0
    2.6597   -6.9071    0.0000 C   0  0  0  0  0  4  0  0  0  0  0  0
    3.9895   -6.9071    0.0000 C   0  0  0  0  0  4  0  0  0  0  0  0
    4.6504   -5.7546    0.0000 C   0  0  0  0  0  4  0  0  0  0  0  0
    5.9802   -5.7546    0.0000 C   0  0  0  0  0  4  0  0  0  0  0  0
    6.6492   -6.9071    0.0000 C   0  0  0  0  0  4  0  0  0  0  0  0
    5.9802   -8.0596    0.0000 C   0  0  0  0  0  4  0  0  0  0  0  0
    4.6504   -8.0596    0.0000 C   0  0  0  0  0  4  0  0  0  0  0  0
    2.6597   -4.6020    0.0000 N   0  0  0  0  0  3  0  0  0  0  0  0
    1.9907   -3.4576    0.0000 C   0  0  0  0  0  4  0  0  0  0  0  0
    0.6609   -3.4576    0.0000 O   0  0  0  0  0  2  0  0  0  0  0  0
    2.6597   -2.3050    0.0000 C   0  0  0  0  0  4  0  0  0  0  0  0
    3.9895   -2.3050    0.0000 C   0  0  0  0  0  4  0  0  0  0  0  0
    4.6504   -1.1525    0.0000 C   0  0  0  0  0  4  0  0  0  0  0  0
    3.9895    0.0000    0.0000 O   0  0  0  0  0  2  0  0  0  0  0  0
    5.9802   -1.1525    0.0000 O   0  0  0  0  0  2  0  0  0  0  0  0
    1.9907   -1.1525    0.0000 N   0  0  0  0  0  3  0  0  0  0  0  0
    0.0000   -6.9071    0.0000 O   0  0  0  0  0  2  0  0  0  0  0  0
    0.6609   -8.0596    0.0000 C   0  0  0  0  0  4  0  0  0  0  0  0
  1  2  2  0  0  0  0 
  2  3  1  0  0  0  0 
  2 20  1  0  0  0  0 
  3  4  1  0  0  0  0 
  3 11  1  1  0  0  0 
  4  5  1  0  0  0  0 
  5  6  2  0  0  0  0 
  5 10  1  0  0  0  0 
  6  7  1  0  0  0  0 
  7  8  2  0  0  0  0 
  8  9  1  0  0  0  0 
  9 10  2  0  0  0  0 
 11 12  1  0  0  0  0 
 12 13  2  0  0  0  0 
 12 14  1  0  0  0  0 
 14 15  1  0  0  0  0 
 14 19  1  1  0  0  0 
 15 16  1  0  0  0  0 
 16 17  2  0  0  0  0 
 16 18  1  0  0  0  0 
 20 21  1  0  0  0  0 
M  END
> <CDK Fingerprint>
EAAAAACAAgACEgBBAAABCQIoAAACAKACAACAAARALAIAcBAECgAIAtAAiAABGCACEhAKIAAAQABEIsAEAACAFAwEAAAAQAQAAlBgAADAAEAAQCCAQEAAhhAAAACACCAgQABBJAAAEATIAkASBAGAAByAgFJRBAAAAQACAgAQ

> <ActivityOutcome_CPDBAS_Rat>
inactive

$$$$

  CDK     0721101957

 13 13  0  0  0  0  0  0  0  0999 V2000
    0.0000   -5.7579    0.0000 O   0  0  0  0  0  2  0  0  0  0  0  0
    0.6622   -4.6063    0.0000 C   0  0  0  0  0  4  0  0  0  0  0  0
    0.0000   -3.4547    0.0000 O   0  0  0  0  0  2  0  0  0  0  0  0
    1.9922   -4.6063    0.0000 C   0  0  0  0  0  4  0  0  0  0  0  0
    2.6601   -3.4547    0.0000 C   0  0  0  0  0  4  0  0  0  0  0  0
    3.9902   -3.4547    0.0000 C   0  0  0  0  0  4  0  0  0  0  0  0
    4.6524   -4.6063    0.0000 C   0  0  0  0  0  4  0  0  0  0  0  0
    3.9902   -5.7579    0.0000 C   0  0  0  0  0  4  0  0  0  0  0  0
    2.6601   -5.7579    0.0000 C   0  0  0  0  0  4  0  0  0  0  0  0
    1.9922   -2.3031    0.0000 O   0  0  0  0  0  2  0  0  0  0  0  0
    2.6601   -1.1516    0.0000 C   0  0  0  0  0  4  0  0  0  0  0  0
    1.9922    0.0000    0.0000 O   0  0  0  0  0  2  0  0  0  0  0  0
    3.9902   -1.1516    0.0000 C   0  0  0  0  0  4  0  0  0  0  0  0
  1  2  1  0  0  0  0 
  2  3  2  0  0  0  0 
  2  4  1  0  0  0  0 
  4  5  2  0  0  0  0 
  4  9  1  0  0  0  0 
  5  6  1  0  0  0  0 
  5 10  1  0  0  0  0 
  6  7  2  0  0  0  0 
  7  8  1  0  0  0  0 
  8  9  2  0  0  0  0 
 10 11  1  0  0  0  0 
 11 12  2  0  0  0  0 
 11 13  1  0  0  0  0 
M  END
> <CDK Fingerprint>
AIACABAABACAAAAAAAAAgABAAIAAAABAAAJpEAAABAAAAAgEAAAAIAIAIACAACBAAAAIAAAAAgAGECAAAAABAAAABAAAAIAAAABAAAAEAACAEAgCAoAAIABEAEAgJCAAAAACQQAACACAAACAUAhAIIEAAAAgEAA=

> <ActivityOutcome_CPDBAS_Rat>
inactive

$$$$

  CDK     0721101957

 34 38  0  0  0  0  0  0  0  0999 V2000
    5.3229   -3.4205    0.0000 N   0  0  0  0  0  3  0  0  0  0  0  0
    4.4390   -4.4005    0.0000 C   0  0  0  0  0  4  0  0  0  0  0  0
    6.5528   -3.9778    0.0000 C   0  0  0  0  0  4  0  0  0  0  0  0
    5.0539   -2.1330    0.0000 C   0  0  0  0  0  4  0  0  0  0  0  0
    5.0923   -5.5727    0.0000 C   0  0  0  0  0  4  0  0  0  0  0  0
    3.1130   -4.4005    0.0000 C   0  0  0  0  0  4  0  0  0  0  0  0
    6.3990   -5.2845    0.0000 N   0  0  0  0  0  3  0  0  0  0  0  0
    7.7058   -3.2860    0.0000 N   0  0  0  0  0  3  0  0  0  0  0  0
    3.7856   -1.7103    0.0000 C   0  0  0  0  0  4  0  0  0  0  0  0
    4.4390   -6.7065    0.0000 C   0  0  0  0  0  4  0  0  0  0  0  0
    2.4597   -5.5727    0.0000 C   0  0  0  0  0  4  0  0  0  0  0  0
    8.8395   -3.9778    0.0000 C   0  0  0  0  0  4  0  0  0  0  0  0
    2.8056   -2.5942    0.0000 C   0  0  0  0  0  4  0  0  0  0  0  0
    3.5166   -0.4035    0.0000 C   0  0  0  0  0  4  0  0  0  0  0  0
    3.1130   -6.7065    0.0000 C   0  0  0  0  0  4  0  0  0  0  0  0
   10.0117   -3.2860    0.0000 C   0  0  0  0  0  4  0  0  0  0  0  0
    8.8395   -5.2845    0.0000 C   0  0  0  0  0  4  0  0  0  0  0  0
    1.5373   -2.1907    0.0000 C   0  0  0  0  0  4  0  0  0  0  0  0
    2.2483    0.0000    0.0000 C   0  0  0  0  0  4  0  0  0  0  0  0
   11.1455   -3.9778    0.0000 C   0  0  0  0  0  4  0  0  0  0  0  0
   10.0117   -5.9571    0.0000 C   0  0  0  0  0  4  0  0  0  0  0  0
    1.2491   -0.8840    0.0000 C   0  0  0  0  0  4  0  0  0  0  0  0
   11.1455   -5.2845    0.0000 N   0  0  0  0  0  3  0  0  0  0  0  0
    0.0000   -0.4804    0.0000 F   0  0  0  0  0  1  0  0  0  0  0  0
   12.2985   -5.9571    0.0000 C   0  0  0  0  0  4  0  0  0  0  0  0
   13.4514   -5.2845    0.0000 C   0  0  0  0  0  4  0  0  0  0  0  0
   14.6044   -5.9571    0.0000 C   0  0  0  0  0  4  0  0  0  0  0  0
   15.7574   -5.2845    0.0000 C   0  0  0  0  0  4  0  0  0  0  0  0
   14.6044   -7.3022    0.0000 C   0  0  0  0  0  4  0  0  0  0  0  0
   16.9104   -5.9571    0.0000 C   0  0  0  0  0  4  0  0  0  0  0  0
   15.7574   -7.9556    0.0000 C   0  0  0  0  0  4  0  0  0  0  0  0
   16.9104   -7.3022    0.0000 C   0  0  0  0  0  4  0  0  0  0  0  0
   18.0634   -7.9556    0.0000 O   0  0  0  0  0  2  0  0  0  0  0  0
   19.2163   -7.3022    0.0000 C   0  0  0  0  0  4  0  0  0  0  0  0
  1  2  1  0  0  0  0 
  1  3  1  0  0  0  0 
  1  4  1  0  0  0  0 
  2  5  1  0  0  0  0 
  2  6  2  0  0  0  0 
  3  7  2  0  0  0  0 
  3  8  1  0  0  0  0 
  4  9  1  0  0  0  0 
  5 10  2  0  0  0  0 
  5  7  1  0  0  0  0 
  6 11  1  0  0  0  0 
  8 12  1  0  0  0  0 
  9 13  1  0  0  0  0 
  9 14  2  0  0  0  0 
 10 15  1  0  0  0  0 
 11 15  2  0  0  0  0 
 12 16  1  0  0  0  0 
 12 17  1  0  0  0  0 
 13 18  2  0  0  0  0 
 14 19  1  0  0  0  0 
 16 20  1  0  0  0  0 
 17 21  1  0  0  0  0 
 18 22  1  0  0  0  0 
 19 22  2  0  0  0  0 
 20 23  1  0  0  0  0 
 21 23  1  0  0  0  0 
 22 24  1  0  0  0  0 
 23 25  1  0  0  0  0 
 25 26  1  0  0  0  0 
 26 27  1  0  0  0  0 
 27 28  1  0  0  0  0 
 27 29  2  0  0  0  0 
 28 30  2  0  0  0  0 
 29 31  1  0  0  0  0 
 30 32  1  0  0  0  0 
 31 32  2  0  0  0  0 
 32 33  1  0  0  0  0 
 33 34  1  0  0  0  0 
M  END
> <CDK Fingerprint>
AJQQIqCRK4RCABK+BAEgACAgCACAAAACgCICIFFgDHQoERJhESQJICCAUAAIEMBEIIAQIEgIEADaIMAAwwAIEIMHHIGQCiFIAAwiVABAIMEAcAAAoZVGADCGIAFAAsHAIFoiGkRlK2BEDMEiUBQFAECEFBCAICAcAQAAACgiIFI=

> <ActivityOutcome_CPDBAS_Rat>
inactive

$$$$

  CDK     0721101957

 14 14  0  0  0  0  0  0  0  0999 V2000
    5.9846    0.0000    0.0000 Cl  0  0  0  0  0  1  0  0  0  0  0  0
    5.3223   -1.1570    0.0000 C   0  0  0  0  0  4  0  0  0  0  0  0
    5.9846   -2.3061    0.0000 N   0  0  0  0  0  3  0  0  0  0  0  0
    5.3223   -3.4551    0.0000 C   0  0  0  0  0  4  0  0  0  0  0  0
    3.9898   -3.4551    0.0000 N   0  0  0  0  0  3  0  0  0  0  0  0
    3.3275   -2.3061    0.0000 C   0  0  0  0  0  4  0  0  0  0  0  0
    3.9898   -1.1570    0.0000 N   0  0  0  0  0  3  0  0  0  0  0  0
    1.9949   -2.3061    0.0000 N   0  0  0  0  0  3  0  0  0  0  0  0
    1.3326   -3.4551    0.0000 C   0  0  0  0  0  4  0  0  0  0  0  0
    1.9949   -4.6122    0.0000 C   0  0  0  0  0  4  0  0  0  0  0  0
    0.0000   -3.4551    0.0000 C   0  0  0  0  0  4  0  0  0  0  0  0
    5.9846   -4.6122    0.0000 N   0  0  0  0  0  3  0  0  0  0  0  0
    7.3172   -4.6122    0.0000 C   0  0  0  0  0  4  0  0  0  0  0  0
    7.9795   -5.7612    0.0000 C   0  0  0  0  0  4  0  0  0  0  0  0
  1  2  1  0  0  0  0 
  2  3  2  0  0  0  0 
  2  7  1  0  0  0  0 
  3  4  1  0  0  0  0 
  4  5  2  0  0  0  0 
  4 12  1  0  0  0  0 
  5  6  1  0  0  0  0 
  6  7  2  0  0  0  0 
  6  8  1  0  0  0  0 
  8  9  1  0  0  0  0 
  9 10  1  0  0  0  0 
  9 11  1  0  0  0  0 
 12 13  1  0  0  0  0 
 13 14  1  0  0  0  0 
M  END
> <CDK Fingerprint>
AgCACgQKQAAAAAChAABAAAAAAAAABBAAAAAAACQAAADgAAAAAAAAAAAAAAAEIgAAAQAAAAAAEAAAwIQAASAAAAESAAAAAEAAgIAABIAAAAAAAAEAACAAAAQAAAAAgAAAAAAAEBAAACAAEACAAAAAAAAAADAAAAAQAAACAAI=

> <ActivityOutcome_CPDBAS_Rat>
active

> <TD50_Rat_mmol>
0.17

$$$$

  CDK     0721101957

 21 23  0  0  0  0  0  0  0  0999 V2000
    4.5879    4.2169    0.0000 C   0  0  0  0  0  4  0  0  0  0  0  0
    4.5879    2.8000    0.0000 C   0  0  0  0  0  4  0  0  0  0  0  0
    5.8024    4.8916    0.0000 O   0  0  0  0  0  2  0  0  0  0  0  0
    5.8024    2.0916    0.0000 C   0  0  0  0  0  4  0  0  0  0  0  0
    3.3904    2.0916    0.0000 C   0  0  0  0  0  4  0  0  0  0  0  0
    2.1422    2.8000    0.0000 O   0  0  0  0  0  2  0  0  0  0  0  0
    7.0169    2.8000    0.0000 C   0  0  0  0  0  4  0  0  0  0  0  0
    5.8024    0.6916    0.0000 C   0  0  0  0  0  4  0  0  0  0  0  0
    7.0169    0.0000    0.0000 C   0  0  0  0  0  4  0  0  0  0  0  0
    8.2313    2.0916    0.0000 C   0  0  0  0  0  4  0  0  0  0  0  0
    8.2313    0.6916    0.0000 C   0  0  0  0  0  4  0  0  0  0  0  0
    1.5855    7.5735    0.0000 C   0  0  0  0  0  4  0  0  0  0  0  0
    3.3904    6.2241    0.0000 C   0  0  0  0  0  4  0  0  0  0  0  0
    2.5133    6.9494    0.0000 C   0  0  0  0  0  4  0  0  0  0  0  0
    0.8771    6.9494    0.0000 C   0  0  0  0  0  4  0  0  0  0  0  0
    0.6410    8.3157    0.0000 N   0  0  0  0  0  3  0  0  0  0  0  0
    3.1542    7.6072    0.0000 C   0  0  0  0  0  4  0  0  0  0  0  0
    0.0000    5.7349    0.0000 C   0  0  0  0  0  4  0  0  0  0  0  0
    1.0458    6.3759    0.0000 C   0  0  0  0  0  4  0  0  0  0  0  0
    0.4391    9.8530    0.0000 C   0  0  0  0  0  4  0  0  0  0  0  0
    3.3904    5.1614    0.0000 O   0  0  0  0  0  2  0  0  0  0  0  0
  2  1  1  0  0  0  0 
  3  1  2  0  0  0  0 
 21  1  1  0  0  0  0 
  4  2  1  0  0  0  0 
  5  2  1  0  0  0  0 
  7  4  1  0  0  0  0 
  8  4  2  0  0  0  0 
  6  5  1  0  0  0  0 
 10  7  2  0  0  0  0 
  9  8  1  0  0  0  0 
 11  9  2  0  0  0  0 
 11 10  1  0  0  0  0 
 12 16  1  1  0  0  0 
 17 12  1  0  0  0  0 
 19 12  1  0  0  0  0 
 14 13  1  0  0  0  0 
 17 13  1  0  0  0  0 
 13 21  1  6  0  0  0 
 15 14  1  0  0  0  0 
 15 16  1  6  0  0  0 
 18 15  1  0  0  0  0 
 20 16  1  0  0  0  0 
 19 18  1  0  0  0  0 
M  END
> <CDK Fingerprint>
CICQAAAAAAAKAACCBwEAABAgAgAAAABAwAQAAIAAAAAIAQBgAIQAAAAAAAEIAEBQLAYwAhAAACBAAEAD0UAAAAAMDCAAEgDAAAQQAVQAFcIAAAACIABEQCChMAAAAoIAIABIBUAhAAIAIAgiQBAGAUAAFACAUHCACAIUACACQAA=

> <ActivityOutcome_CPDBAS_Rat>
inactive

$$$$

  CDK     0721101957

 17 18  0  0  0  0  0  0  0  0999 V2000
    3.6962   -5.3133    0.0000 C   0  0  0  0  0  4  0  0  0  0  0  0
    3.7116   -4.0042    0.0000 N   0  0  0  0  0  3  0  0  0  0  0  0
    2.6413   -4.5741    0.0000 O   0  0  0  0  0  2  0  0  0  0  0  0
    3.3035   -6.6147    0.0000 C   0  0  0  0  0  4  0  0  0  0  0  0
    4.8513   -3.3497    0.0000 C   0  0  0  0  0  4  0  0  0  0  0  0
    2.5643   -3.3266    0.0000 C   0  0  0  0  0  4  0  0  0  0  0  0
    1.5555   -5.3672    0.0000 C   0  0  0  0  0  4  0  0  0  0  0  0
    1.9636   -6.6147    0.0000 C   0  0  0  0  0  4  0  0  0  0  0  0
    4.1120   -7.6774    0.0000 O   0  0  0  0  0  2  0  0  0  0  0  0
    4.8590   -2.0175    0.0000 N   0  0  0  0  0  3  0  0  0  0  0  0
    6.0064   -4.0196    0.0000 O   0  0  0  0  0  2  0  0  0  0  0  0
    2.5643   -2.0021    0.0000 N   0  0  0  0  0  3  0  0  0  0  0  0
    0.2772   -4.9514    0.0000 C   0  0  0  0  0  4  0  0  0  0  0  0
    1.1782   -7.7005    0.0000 O   0  0  0  0  0  2  0  0  0  0  0  0
    3.7039   -1.3322    0.0000 C   0  0  0  0  0  4  0  0  0  0  0  0
    0.0000   -3.6500    0.0000 O   0  0  0  0  0  2  0  0  0  0  0  0
    3.7193    0.0000    0.0000 N   0  0  0  0  0  3  0  0  0  0  0  0
  1  2  1  1  0  0  0 
  1  3  1  0  0  0  0 
  1  4  1  0  0  0  0 
  2  5  1  0  0  0  0 
  2  6  1  0  0  0  0 
  3  7  1  0  0  0  0 
  4  8  1  0  0  0  0 
  4  9  1  6  0  0  0 
  5 10  1  0  0  0  0 
  5 11  2  0  0  0  0 
  6 12  2  0  0  0  0 
  7 13  1  1  0  0  0 
  7  8  1  0  0  0  0 
  8 14  1  6  0  0  0 
 10 15  2  0  0  0  0 
 12 15  1  0  0  0  0 
 13 16  1  0  0  0  0 
 15 17  1  0  0  0  0 
M  END
> <CDK Fingerprint>
EMAGAYyIQAEiEQBCAA0gABAgERAAAFERgAACAABgAGAAAdBgBIQI0KDAgEAJAAF8ZELigQIggBAgAABAwqMIAMCIgUFMEABAgCAACAgAAICBIURCIOxEZGCIERQAAEqIgADgAIABAZCQAEAwABAQgSAAEAAAQHQOACgIUAQCAIE=

> <ActivityOutcome_CPDBAS_Rat>
active

> <TD50_Rat_mmol>
0.000696

$$$$

  CDK     0721101957

 17 18  0  0  0  0  0  0  0  0999 V2000
    3.6714   -5.3263    0.0000 C   0  0  0  0  0  4  0  0  0  0  0  0
    3.6560   -4.0101    0.0000 N   0  0  0  0  0  3  0  0  0  0  0  0
    2.6323   -4.5566    0.0000 O   0  0  0  0  0  2  0  0  0  0  0  0
    3.2558   -6.6040    0.0000 C   0  0  0  0  0  4  0  0  0  0  0  0
    4.7875   -3.3328    0.0000 C   0  0  0  0  0  4  0  0  0  0  0  0
    2.5092   -3.3482    0.0000 N   0  0  0  0  0  3  0  0  0  0  0  0
    1.5240   -5.3109    0.0000 C   0  0  0  0  0  4  0  0  0  0  0  0
    1.9088   -6.5732    0.0000 C   0  0  0  0  0  4  0  0  0  0  0  0
    4.0332   -7.6969    0.0000 O   0  0  0  0  0  2  0  0  0  0  0  0
    4.7798   -2.0089    0.0000 N   0  0  0  0  0  3  0  0  0  0  0  0
    5.9497   -3.9947    0.0000 O   0  0  0  0  0  2  0  0  0  0  0  0
    2.4938   -2.0166    0.0000 C   0  0  0  0  0  4  0  0  0  0  0  0
    0.2617   -4.8876    0.0000 C   0  0  0  0  0  4  0  0  0  0  0  0
    1.1084   -7.6431    0.0000 O   0  0  0  0  0  2  0  0  0  0  0  0
    3.6176   -1.3393    0.0000 C   0  0  0  0  0  4  0  0  0  0  0  0
    0.0000   -3.5714    0.0000 O   0  0  0  0  0  2  0  0  0  0  0  0
    3.6176    0.0000    0.0000 N   0  0  0  0  0  3  0  0  0  0  0  0
  1  2  1  1  0  0  0 
  1  3  1  0  0  0  0 
  1  4  1  0  0  0  0 
  2  5  1  0  0  0  0 
  2  6  1  0  0  0  0 
  3  7  1  0  0  0  0 
  4  8  1  0  0  0  0 
  4  9  1  6  0  0  0 
  5 10  1  0  0  0  0 
  5 11  2  0  0  0  0 
  6 12  2  0  0  0  0 
  7 13  1  1  0  0  0 
  7  8  1  0  0  0  0 
  8 14  1  6  0  0  0 
 10 15  2  0  0  0  0 
 12 15  1  0  0  0  0 
 13 16  1  0  0  0  0 
 15 17  1  0  0  0  0 
M  END
> <CDK Fingerprint>
CcAHAYAAQACSEChKABmgACEAGBKUAFFxgAAihCAAAAIAA5hlBIEI8AAChABTAAFcLEJigAKggBygBA5CwiOgGsIIAFBIECDAAAFAABQABJiBAUVqIOxAQFAIETQAAFoMgmDAIACBARkAgEIoABCQgSAAKAAAzHwMAAAIYAADAgA=

> <ActivityOutcome_CPDBAS_Rat>
inactive

$$$$

  CDK     0721101957

 12 11  0  0  0  0  0  0  0  0999 V2000
    2.6605    0.0000    0.0000 O   0  0  0  0  0  2  0  0  0  0  0  0
    3.3256   -1.1488    0.0000 C   0  0  0  0  0  4  0  0  0  0  0  0
    4.6472   -1.1488    0.0000 O   0  0  0  0  0  2  0  0  0  0  0  0
    5.3123   -2.3063    0.0000 C   0  0  0  0  0  4  0  0  0  0  0  0
    6.6426   -2.3063    0.0000 C   0  0  0  0  0  4  0  0  0  0  0  0
    7.3077   -3.4552    0.0000 C   0  0  0  0  0  4  0  0  0  0  0  0
    6.6426   -4.6040    0.0000 O   0  0  0  0  0  2  0  0  0  0  0  0
    8.6380   -3.4552    0.0000 O   0  0  0  0  0  2  0  0  0  0  0  0
    7.3077   -1.1488    0.0000 N   0  0  0  0  0  3  0  0  0  0  0  0
    2.6605   -2.3063    0.0000 C   0  0  0  0  0  4  0  0  0  0  0  0
    1.3302   -2.3063    0.0000 N   0  0  0  0  0  4  0  0  0  0  0  0
    0.0000   -2.3063    0.0000 N   0  0  0  0  0  2  0  0  0  0  0  0
  1  2  2  0  0  0  0 
  2  3  1  0  0  0  0 
  2 10  1  0  0  0  0 
  3  4  1  0  0  0  0 
  4  5  1  0  0  0  0 
  5  6  1  0  0  0  0 
  5  9  1  6  0  0  0 
  6  7  2  0  0  0  0 
  6  8  1  0  0  0  0 
 10 11  2  0  0  0  0 
 11 12  2  0  0  0  0 
M  CHG  1  11   1
M  CHG  1  12  -1
M  END
> <CDK Fingerprint>
AICIAAEAQAACAAACAAAABAAAAAAAAAgAgAAAQIAAAAAgCgBgAIAAAAAAAAAAAABYZAIAAAAIAAAAAAACQAAAABAAAAAAAAAAAAAAAAAAAAAAAAEAAAAAQAAAEAAIAAIAAARABAAAAgAAAgAAMQAAEYAAAAAAUCEQAAAABAACAAA=

> <ActivityOutcome_CPDBAS_Rat>
active

> <TD50_Rat_mmol>
0.00458

$$$$

  CDK     0721101957

 19 21  0  0  0  0  0  0  0  0999 V2000
    3.2901   -4.0583    0.0000 N   0  0  0  0  0  3  0  0  0  0  0  0
    2.1377   -4.7263    0.0000 C   0  0  0  0  0  4  0  0  0  0  0  0
    0.9853   -4.0583    0.0000 N   0  0  0  0  0  3  0  0  0  0  0  0
    0.9853   -2.7306    0.0000 C   0  0  0  0  0  4  0  0  0  0  0  0
    2.1377   -2.0626    0.0000 C   0  0  0  0  0  4  0  0  0  0  0  0
    3.2901   -2.7306    0.0000 C   0  0  0  0  0  4  0  0  0  0  0  0
    4.4424   -2.0626    0.0000 S   0  0  0  0  0  2  0  0  0  0  0  0
    5.5948   -2.7306    0.0000 C   0  0  0  0  0  4  0  0  0  0  0  0
    5.7367   -4.0500    0.0000 N   0  0  0  0  0  3  0  0  0  0  0  0
    4.7430   -4.9434    0.0000 C   0  0  0  0  0  4  0  0  0  0  0  0
    7.0310   -4.3339    0.0000 C   0  0  0  0  0  4  0  0  0  0  0  0
    7.6991   -3.1815    0.0000 N   0  0  0  0  0  3  0  0  0  0  0  0
    6.8056   -2.1878    0.0000 C   0  0  0  0  0  4  0  0  0  0  0  0
    7.0895   -0.8935    0.0000 N   0  0  0  0  0  4  0  0  0  0  0  0
    6.0958    0.0000    0.0000 O   0  0  0  0  0  1  0  0  0  0  0  0
    8.3504   -0.4760    0.0000 O   0  0  0  0  0  2  0  0  0  0  0  0
    1.8621   -0.7682    0.0000 N   0  0  0  0  0  3  0  0  0  0  0  0
    0.5428   -0.6263    0.0000 C   0  0  0  0  0  4  0  0  0  0  0  0
    0.0000   -1.8454    0.0000 N   0  0  0  0  0  3  0  0  0  0  0  0
  1  2  1  0  0  0  0 
  1  6  2  0  0  0  0 
  2  3  2  0  0  0  0 
  3  4  1  0  0  0  0 
  4  5  2  0  0  0  0 
  4 19  1  0  0  0  0 
  5  6  1  0  0  0  0 
  5 17  1  0  0  0  0 
  6  7  1  0  0  0  0 
  7  8  1  0  0  0  0 
  8  9  1  0  0  0  0 
  8 13  2  0  0  0  0 
  9 10  1  0  0  0  0 
  9 11  1  0  0  0  0 
 11 12  2  0  0  0  0 
 12 13  1  0  0  0  0 
 13 14  1  0  0  0  0 
 14 15  1  0  0  0  0 
 14 16  2  0  0  0  0 
 17 18  1  0  0  0  0 
 18 19  2  0  0  0  0 
M  CHG  1  14   1
M  CHG  1  15  -1
M  END
> <CDK Fingerprint>
QCAHcZsqBABJgjgYERhAhIEgQgAhUCEAEANUhR1IBAAAAXACCAAgABQAAAUAQchMABCAJgkAAFABwAEABYgABREAAoBBAABAQECABASAAFBgIb2hASQDYCCbQkACCIUAIBYUBigAFUEAMwaSAEEg0ATKQBgQsAShgCgQJAoBDg==

> <ActivityOutcome_CPDBAS_Rat>
inactive

$$$$

  CDK     0721101957

 43 47  0  0  0  0  0  0  0  0999 V2000
    4.6201   -6.8208    0.0000 C   0  0  0  0  0  4  0  0  0  0  0  0
    4.6201   -8.1464    0.0000 N   0  0  0  0  0  3  0  0  0  0  0  0
    5.9457   -8.1464    0.0000 C   0  0  0  0  0  4  0  0  0  0  0  0
    5.9457   -6.8208    0.0000 C   0  0  0  0  0  4  0  0  0  0  0  0
    5.9972   -2.6511    0.0000 C   0  0  0  0  0  4  0  0  0  0  0  0
    5.9972   -3.9767    0.0000 C   0  0  0  0  0  4  0  0  0  0  0  0
    7.1297   -4.6330    0.0000 C   0  0  0  0  0  4  0  0  0  0  0  0
    8.2880   -3.9767    0.0000 C   0  0  0  0  0  4  0  0  0  0  0  0
    8.2880   -2.6511    0.0000 C   0  0  0  0  0  4  0  0  0  0  0  0
    7.1297   -1.9819    0.0000 C   0  0  0  0  0  4  0  0  0  0  0  0
    4.8389   -4.6330    0.0000 N   0  0  0  0  0  4  0  0  0  0  0  0
    4.8389   -5.9586    0.0000 O   0  0  0  0  0  1  0  0  0  0  0  0
    3.7064   -3.9767    0.0000 O   0  0  0  0  0  2  0  0  0  0  0  0
    9.4205   -4.6330    0.0000 C   0  0  0  0  0  4  0  0  0  0  0  0
    9.4205   -5.9586    0.0000 C   0  0  0  0  0  4  0  0  0  0  0  0
   10.5787   -6.6149    0.0000 C   0  0  0  0  0  4  0  0  0  0  0  0
   11.7112   -5.9586    0.0000 N   0  0  0  0  0  3  0  0  0  0  0  0
   11.7112   -4.6330    0.0000 C   0  0  0  0  0  4  0  0  0  0  0  0
   10.5787   -3.9767    0.0000 C   0  0  0  0  0  4  0  0  0  0  0  0
   12.8695   -3.9767    0.0000 C   0  0  0  0  0  4  0  0  0  0  0  0
   10.5787   -2.6511    0.0000 C   0  0  0  0  0  4  0  0  0  0  0  0
   11.7112   -1.9819    0.0000 O   0  0  0  0  0  2  0  0  0  0  0  0
    9.4205   -1.9819    0.0000 O   0  0  0  0  0  2  0  0  0  0  0  0
    9.4205   -0.6692    0.0000 C   0  0  0  0  0  4  0  0  0  0  0  0
   10.5787    0.0000    0.0000 C   0  0  0  0  0  4  0  0  0  0  0  0
    8.2880    0.0000    0.0000 C   0  0  0  0  0  4  0  0  0  0  0  0
   10.5787   -7.9405    0.0000 N   0  0  0  0  0  3  0  0  0  0  0  0
    8.2493   -6.6149    0.0000 C   0  0  0  0  0  4  0  0  0  0  0  0
    7.0782   -5.9586    0.0000 O   0  0  0  0  0  2  0  0  0  0  0  0
    8.2493   -7.9405    0.0000 O   0  0  0  0  0  2  0  0  0  0  0  0
    3.4619   -8.8027    0.0000 C   0  0  0  0  0  4  0  0  0  0  0  0
    2.3036   -8.1464    0.0000 C   0  0  0  0  0  4  0  0  0  0  0  0
    3.4619  -10.1540    0.0000 C   0  0  0  0  0  4  0  0  0  0  0  0
    1.1583   -8.8027    0.0000 C   0  0  0  0  0  4  0  0  0  0  0  0
    0.0000   -8.1464    0.0000 C   0  0  0  0  0  4  0  0  0  0  0  0
    0.0000   -6.8080    0.0000 C   0  0  0  0  0  4  0  0  0  0  0  0
    1.1583   -6.1516    0.0000 C   0  0  0  0  0  4  0  0  0  0  0  0
    2.3036   -6.8080    0.0000 C   0  0  0  0  0  4  0  0  0  0  0  0
    4.6201  -10.7975    0.0000 C   0  0  0  0  0  4  0  0  0  0  0  0
    4.6201  -12.1488    0.0000 C   0  0  0  0  0  4  0  0  0  0  0  0
    3.4619  -12.8180    0.0000 C   0  0  0  0  0  4  0  0  0  0  0  0
    2.3036  -12.1488    0.0000 C   0  0  0  0  0  4  0  0  0  0  0  0
    2.3036  -10.7975    0.0000 C   0  0  0  0  0  4  0  0  0  0  0  0
  1  2  1  0  0  0  0 
  1  4  1  0  0  0  0 
  2  3  1  0  0  0  0 
  2 31  1  0  0  0  0 
  3  4  1  0  0  0  0 
  4 29  1  0  0  0  0 
  5  6  2  0  0  0  0 
  5 10  1  0  0  0  0 
  6 11  1  0  0  0  0 
  6  7  1  0  0  0  0 
  7  8  2  0  0  0  0 
  8 14  1  0  0  0  0 
  8  9  1  0  0  0  0 
  9 10  2  0  0  0  0 
 11 12  1  0  0  0  0 
 11 13  2  0  0  0  0 
 14 15  1  0  0  0  0 
 14 19  1  0  0  0  0 
 15 28  1  0  0  0  0 
 15 16  2  0  0  0  0 
 16 27  1  0  0  0  0 
 16 17  1  0  0  0  0 
 17 18  1  0  0  0  0 
 18 19  2  0  0  0  0 
 18 20  1  0  0  0  0 
 19 21  1  0  0  0  0 
 21 22  2  0  0  0  0 
 21 23  1  0  0  0  0 
 23 24  1  0  0  0  0 
 24 25  1  0  0  0  0 
 24 26  1  0  0  0  0 
 28 29  1  0  0  0  0 
 28 30  2  0  0  0  0 
 31 32  1  0  0  0  0 
 31 33  1  0  0  0  0 
 32 34  2  0  0  0  0 
 32 38  1  0  0  0  0 
 33 39  2  0  0  0  0 
 33 43  1  0  0  0  0 
 34 35  1  0  0  0  0 
 35 36  2  0  0  0  0 
 36 37  1  0  0  0  0 
 37 38  2  0  0  0  0 
 39 40  1  0  0  0  0 
 40 41  2  0  0  0  0 
 41 42  1  0  0  0  0 
 42 43  2  0  0  0  0 
M  CHG  1  11   1
M  CHG  1  12  -1
M  END
> <CDK Fingerprint>
AMAaUR0TgABnMAtagME4RTM5CQABBFpo5BAEItIcBPYJA4DgAcQYkAjCAAEDhkBYIAIwhEIYHABABQQlwCCAIAAVCVwFQBAABgQAQWAQoIEYAARAMAGgxAGgMhAAGIAIJSBUGEAgkADAQiQyZJoEh0EgPoCE8h9HGIAAUCJiEgA=

> <ActivityOutcome_CPDBAS_Rat>
inactive

$$$$

  CDK     0721101957

 19 20  0  0  0  0  0  0  0  0999 V2000
    3.4502   -0.9739    0.0000 O   0  0  0  0  0  2  0  0  0  0  0  0
    3.4502   -2.3002    0.0000 C   0  0  0  0  0  4  0  0  0  0  0  0
    2.3002   -2.9736    0.0000 C   0  0  0  0  0  4  0  0  0  0  0  0
    2.3002   -4.2998    0.0000 C   0  0  0  0  0  4  0  0  0  0  0  0
    1.1501   -4.9629    0.0000 C   0  0  0  0  0  4  0  0  0  0  0  0
    0.0000   -4.2998    0.0000 C   0  0  0  0  0  4  0  0  0  0  0  0
    0.0000   -2.9736    0.0000 C   0  0  0  0  0  4  0  0  0  0  0  0
    1.1501   -2.3002    0.0000 C   0  0  0  0  0  4  0  0  0  0  0  0
    3.4502   -4.9629    0.0000 N   0  0  0  0  0  3  0  0  0  0  0  0
    4.6003   -4.2998    0.0000 N   0  0  0  0  0  3  0  0  0  0  0  0
    4.6003   -2.9736    0.0000 N   0  0  0  0  0  3  0  0  0  0  0  0
    5.7607   -2.3002    0.0000 C   0  0  0  0  0  4  0  0  0  0  0  0
    6.9108   -2.9736    0.0000 S   0  0  0  0  0  2  0  0  0  0  0  0
    8.0609   -2.3002    0.0000 P   0  0  0  0  0  5  0  0  0  0  0  0
    8.7240   -3.4606    0.0000 S   0  0  0  0  0  2  0  0  0  0  0  0
    7.3978   -1.1501    0.0000 O   0  0  0  0  0  2  0  0  0  0  0  0
    8.0609    0.0000    0.0000 C   0  0  0  0  0  4  0  0  0  0  0  0
    9.2110   -1.6370    0.0000 O   0  0  0  0  0  2  0  0  0  0  0  0
   10.3610   -2.3002    0.0000 C   0  0  0  0  0  4  0  0  0  0  0  0
  1  2  2  0  0  0  0 
  2  3  1  0  0  0  0 
  2 11  1  0  0  0  0 
  3  4  2  0  0  0  0 
  3  8  1  0  0  0  0 
  4  5  1  0  0  0  0 
  4  9  1  0  0  0  0 
  5  6  2  0  0  0  0 
  6  7  1  0  0  0  0 
  7  8  2  0  0  0  0 
  9 10  2  0  0  0  0 
 10 11  1  0  0  0  0 
 11 12  1  0  0  0  0 
 12 13  1  0  0  0  0 
 13 14  1  0  0  0  0 
 14 15  2  0  0  0  0 
 14 16  1  0  0  0  0 
 14 18  1  0  0  0  0 
 16 17  1  0  0  0  0 
 18 19  1  0  0  0  0 
M  END
> <CDK Fingerprint>
BEAAANZAAOIAiAIEAIgAICAABAgUAkgKAEAJIcQRNlAAAWgAAyAEQCEACQAAAIBgEAIEAOIAIEQAAICgggjSkyUAEhABQCAgAAAIsAAAoBAAQAKgBJAAA6UAAgARgAogAMagYCgBCiIAABbIAAAAQAICEMBSDUAmUAECFAMQAQ==

> <ActivityOutcome_CPDBAS_Rat>
inactive

$$$$

  CDK     0721101957

 14 15  0  0  0  0  0  0  0  0999 V2000
    4.6497   -2.3075    0.0000 N   0  0  0  0  0  3  0  0  0  0  0  0
    3.9928   -1.1581    0.0000 N   0  0  0  0  0  3  0  0  0  0  0  0
    2.6619   -1.1581    0.0000 C   0  0  0  0  0  4  0  0  0  0  0  0
    1.9964   -2.3075    0.0000 C   0  0  0  0  0  4  0  0  0  0  0  0
    0.6655   -2.3075    0.0000 C   0  0  0  0  0  4  0  0  0  0  0  0
    0.0000   -1.1581    0.0000 C   0  0  0  0  0  4  0  0  0  0  0  0
    0.6655    0.0000    0.0000 C   0  0  0  0  0  4  0  0  0  0  0  0
    1.9964    0.0000    0.0000 C   0  0  0  0  0  4  0  0  0  0  0  0
    5.9806   -2.3075    0.0000 C   0  0  0  0  0  4  0  0  0  0  0  0
    6.6461   -1.1581    0.0000 C   0  0  0  0  0  4  0  0  0  0  0  0
    7.9770   -1.1581    0.0000 C   0  0  0  0  0  4  0  0  0  0  0  0
    8.6425   -2.3075    0.0000 C   0  0  0  0  0  4  0  0  0  0  0  0
    7.9770   -3.4570    0.0000 C   0  0  0  0  0  4  0  0  0  0  0  0
    6.6461   -3.4570    0.0000 C   0  0  0  0  0  4  0  0  0  0  0  0
  1  2  2  0  0  0  0 
  1  9  1  0  0  0  0 
  2  3  1  0  0  0  0 
  3  4  2  0  0  0  0 
  3  8  1  0  0  0  0 
  4  5  1  0  0  0  0 
  5  6  2  0  0  0  0 
  6  7  1  0  0  0  0 
  7  8  2  0  0  0  0 
  9 10  2  0  0  0  0 
  9 14  1  0  0  0  0 
 10 11  1  0  0  0  0 
 11 12  2  0  0  0  0 
 12 13  1  0  0  0  0 
 13 14  2  0  0  0  0 
M  END
> <CDK Fingerprint>
QAAgAAAAAAAAAAIAAAABAABAAABACAAEAAIAAABoEAAAAAAAAAAAAAAAAAAAAAAAAABAAAAAAAAAEAAAAAIAAAAAIAAAAQAAAAAAAAAAAAAAAAAgAAAAAAAAIAAAAAAgAAAgAAACAAAACABAAACAAAIAAAAQAAADEAA=

> <ActivityOutcome_CPDBAS_Rat>
active

> <TD50_Rat_mmol>
0.132

$$$$

  CDK     0721101957

  5  4  0  0  0  0  0  0  0  0999 V2000
    0.0000   -1.9945    0.0000 C   0  0  0  0  0  4  0  0  0  0  0  0
    1.1511   -1.3308    0.0000 N   0  0  0  0  0  4  0  0  0  0  0  0
    2.3056   -1.9945    0.0000 N   0  0  0  0  0  3  0  0  0  0  0  0
    3.4567   -1.3308    0.0000 C   0  0  0  0  0  4  0  0  0  0  0  0
    1.1511    0.0000    0.0000 O   0  0  0  0  0  1  0  0  0  0  0  0
  1  2  1  0  0  0  0 
  2  3  2  0  0  0  0 
  2  5  1  0  0  0  0 
  3  4  1  0  0  0  0 
M  CHG  1   2   1
M  CHG  1   5  -1
M  END
> <CDK Fingerprint>
QAAAAAAIAAAAAAAAAAAAAAAAAAAAAAAAAAAAAABgAAAAAAAAAAAAAAAAAAAAgAIAAAAAAAQAAAAAEAAAAAAAAAAAAAAAAAAAAAAAAAAAAAAAAAAAAAAAAAAAAAAAAAAAAAAAAAAAAAAAAAAAAAAAAAAAAAAQAAACAAA=

> <ActivityOutcome_CPDBAS_Rat>
active

> <TD50_Rat_mmol>
0.000629

$$$$

  CDK     0721101957

  9  8  0  0  0  0  0  0  0  0999 V2000
    2.6600   -1.1571    0.0000 N   0  0  0  0  0  4  0  0  0  0  0  0
    3.9901   -1.1571    0.0000 N   0  0  0  0  0  3  0  0  0  0  0  0
    4.6551   -2.3076    0.0000 C   0  0  0  0  0  4  0  0  0  0  0  0
    5.9851   -2.3076    0.0000 C   0  0  0  0  0  4  0  0  0  0  0  0
    6.6501   -3.4580    0.0000 C   0  0  0  0  0  4  0  0  0  0  0  0
    1.9950   -2.3076    0.0000 C   0  0  0  0  0  4  0  0  0  0  0  0
    0.6650   -2.3076    0.0000 C   0  0  0  0  0  4  0  0  0  0  0  0
    0.0000   -3.4580    0.0000 C   0  0  0  0  0  4  0  0  0  0  0  0
    1.9950    0.0000    0.0000 O   0  0  0  0  0  1  0  0  0  0  0  0
  1  2  2  0  0  0  0 
  1  6  1  0  0  0  0 
  1  9  1  0  0  0  0 
  2  3  1  0  0  0  0 
  3  4  1  0  0  0  0 
  4  5  1  0  0  0  0 
  6  7  1  0  0  0  0 
  7  8  1  0  0  0  0 
M  CHG  1   1   1
M  CHG  1   9  -1
M  END
> <CDK Fingerprint>
QAAiAAAIAAEAAAAAAAAAAAAAAAAAAAAAAAAAAEBhAAAAAAAAAAAAAAAAIAAAgAIAAAAgAIQAQAAgEAAAAAAAAAAAAAABAAAAAABAAAQgAAAAAAAAAAAAAAAAAAAAAAAAAAAAAAAAAAAAAAAAAAAAAEAAAAAQAAACAAA=

> <ActivityOutcome_CPDBAS_Rat>
active

> <TD50_Rat_mmol>
0.00000185

$$$$

  CDK     0721101957

  9  8  0  0  0  0  0  0  0  0999 V2000
    2.3049   -1.9937    0.0000 N   0  0  0  0  0  4  0  0  0  0  0  0
    3.4573   -1.3311    0.0000 N   0  0  0  0  0  3  0  0  0  0  0  0
    4.6097   -1.9937    0.0000 C   0  0  0  0  0  4  0  0  0  0  0  0
    5.7622   -1.3311    0.0000 C   0  0  0  0  0  4  0  0  0  0  0  0
    4.6097   -3.3248    0.0000 C   0  0  0  0  0  4  0  0  0  0  0  0
    1.1524   -1.3311    0.0000 C   0  0  0  0  0  4  0  0  0  0  0  0
    1.1524    0.0000    0.0000 C   0  0  0  0  0  4  0  0  0  0  0  0
    0.0000   -1.9937    0.0000 C   0  0  0  0  0  4  0  0  0  0  0  0
    2.3049   -3.3248    0.0000 O   0  0  0  0  0  1  0  0  0  0  0  0
  1  2  2  0  0  0  0 
  1  6  1  0  0  0  0 
  1  9  1  0  0  0  0 
  2  3  1  0  0  0  0 
  3  4  1  0  0  0  0 
  3  5  1  0  0  0  0 
  6  7  1  0  0  0  0 
  6  8  1  0  0  0  0 
M  CHG  1   1   1
M  CHG  1   9  -1
M  END
> <CDK Fingerprint>
QAAiAAAIAAAAAAAAAAAAAAAAAAAAAAAAAAAAAABgAAAAAAAAAAAAAAAAIAAAgAIAAAAgAAQAQAAgEAAAAAAAAAAAAAAAAAAAAAAAAAQAAAAAAAAAAAAAAAAAAAAAAAAAAAAAAAAAAAAAAAAAAAAAAEAAAAAQAAACAAA=

> <ActivityOutcome_CPDBAS_Rat>
active

> <TD50_Rat_mmol>
0.0000206

$$$$

  CDK     0721101957

 19 20  0  0  0  0  0  0  0  0999 V2000
    5.4706    4.8291    0.0000 N   0  0  0  0  0  3  0  0  0  0  0  0
    4.2859    5.5417    0.0000 C   0  0  0  0  0  4  0  0  0  0  0  0
    4.2859    6.8779    0.0000 N   0  0  0  0  0  3  0  0  0  0  0  0
    6.6554    5.5595    0.0000 C   0  0  0  0  0  4  0  0  0  0  0  0
    6.6554    6.8779    0.0000 C   0  0  0  0  0  4  0  0  0  0  0  0
    5.4706    7.5638    0.0000 C   0  0  0  0  0  4  0  0  0  0  0  0
    3.1101    4.8024    0.0000 O   0  0  0  0  0  2  0  0  0  0  0  0
    5.4706    8.9088    0.0000 O   0  0  0  0  0  2  0  0  0  0  0  0
    7.9114    7.5994    0.0000 C   0  0  0  0  0  4  0  0  0  0  0  0
    5.4706    2.4952    0.0000 C   0  0  0  0  0  4  0  0  0  0  0  0
    3.1991    2.4952    0.0000 C   0  0  0  0  0  4  0  0  0  0  0  0
    4.3483    3.3415    0.0000 O   0  0  0  0  0  2  0  0  0  0  0  0
    3.6267    1.1502    0.0000 C   0  0  0  0  0  4  0  0  0  0  0  0
    5.0431    1.1502    0.0000 C   0  0  0  0  0  4  0  0  0  0  0  0
    1.4119    0.0152    0.0000 N   0  0  0  0  0  4  0  0  0  0  0  0
    0.0000    0.0212    0.0000 N   0  0  0  0  0  2  0  0  0  0  0  0
    2.8073    0.0000    0.0000 N   0  0  0  0  0  3  0  0  0  0  0  0
    1.8719    2.9406    0.0000 C   0  0  0  0  0  4  0  0  0  0  0  0
    1.5690    4.3035    0.0000 O   0  0  0  0  0  2  0  0  0  0  0  0
  2  1  1  0  0  0  0 
  4  1  1  0  0  0  0 
 10  1  1  1  0  0  0 
  3  2  1  0  0  0  0 
  7  2  2  0  0  0  0 
  6  3  1  0  0  0  0 
  5  4  2  0  0  0  0 
  6  5  1  0  0  0  0 
  9  5  1  0  0  0  0 
  8  6  2  0  0  0  0 
 12 10  1  0  0  0  0 
 14 10  1  0  0  0  0 
 12 11  1  0  0  0  0 
 13 11  1  0  0  0  0 
 11 18  1  1  0  0  0 
 14 13  1  0  0  0  0 
 13 17  1  6  0  0  0 
 17 15  2  0  0  0  0 
 16 15  2  0  0  0  0 
 19 18  1  0  0  0  0 
M  CHG  1  15   1
M  CHG  1  16  -1
M  END
> <CDK Fingerprint>
RMAmQYMwSAAiEADKAAEQABGC0AAAgWFBiCAACwHBAABDIxBgR8QIiIEAoAARhgFYIKpiQAIRkAomACpAwCMAEIAgBQYJRAFBECkAAQBAAIGBAOAwJO1ASFBoEZQgEEgEEELkSAEDwBICgkAgABCgATIAUApkdFIEAWAAUQgKIIA=

> <ActivityOutcome_CPDBAS_Rat>
active

> <TD50_Rat_mmol>
43.4

$$$$

  CDK     0721101957

  9  9  0  0  0  0  0  0  0  0999 V2000
    0.0000   -2.3037    0.0000 O   0  0  0  0  0  2  0  0  0  0  0  0
    1.3315   -2.3037    0.0000 C   0  0  0  0  0  4  0  0  0  0  0  0
    1.9950   -1.1518    0.0000 C   0  0  0  0  0  4  0  0  0  0  0  0
    3.3265   -1.1518    0.0000 C   0  0  0  0  0  4  0  0  0  0  0  0
    3.9899    0.0000    0.0000 O   0  0  0  0  0  2  0  0  0  0  0  0
    3.9899   -2.3037    0.0000 N   0  0  0  0  0  3  0  0  0  0  0  0
    3.3265   -3.4555    0.0000 C   0  0  0  0  0  4  0  0  0  0  0  0
    3.9899   -4.6073    0.0000 O   0  0  0  0  0  2  0  0  0  0  0  0
    1.9950   -3.4555    0.0000 N   0  0  0  0  0  3  0  0  0  0  0  0
  1  2  2  0  0  0  0 
  2  3  1  0  0  0  0 
  2  9  1  0  0  0  0 
  3  4  1  0  0  0  0 
  4  5  2  0  0  0  0 
  4  6  1  0  0  0  0 
  6  7  1  0  0  0  0 
  7  8  2  0  0  0  0 
  7  9  1  0  0  0  0 
M  END
> <CDK Fingerprint>
IAAAEAAAAhAAQAABAAAAAAAAAAAAAAAAAAAAAAAAAAAAYAAAIIAAAAAAAAABQCAAQAACAAAAAAAAAsAAAACAQAAAAEABAQAAAAAAAACAAACAACAAAACAAAAAAAAAAAAAQAgAAAAAAAAAAAAAAAEEAEAAAFAAAAEAAAAAAgAA

> <ActivityOutcome_CPDBAS_Rat>
inactive

$$$$

  CDK     0721101958

 21 23  0  0  0  0  0  0  0  0999 V2000
    4.6025   -3.9858    0.0000 C   0  0  0  0  0  4  0  0  0  0  0  0
    3.4427   -3.3230    0.0000 C   0  0  0  0  0  4  0  0  0  0  0  0
    5.7440   -3.3230    0.0000 C   0  0  0  0  0  4  0  0  0  0  0  0
    4.6025   -5.3113    0.0000 C   0  0  0  0  0  4  0  0  0  0  0  0
    2.3013   -3.9858    0.0000 C   0  0  0  0  0  4  0  0  0  0  0  0
    3.4427   -1.9975    0.0000 N   0  0  0  0  0  3  0  0  0  0  0  0
    5.7440   -1.9975    0.0000 N   0  0  0  0  0  3  0  0  0  0  0  0
    7.0143   -3.7373    0.0000 N   0  0  0  0  0  3  0  0  0  0  0  0
    5.7440   -5.9833    0.0000 C   0  0  0  0  0  4  0  0  0  0  0  0
    2.3013   -5.3113    0.0000 C   0  0  0  0  0  4  0  0  0  0  0  0
    1.1414   -3.3230    0.0000 C   0  0  0  0  0  4  0  0  0  0  0  0
    4.6025   -1.3255    0.0000 C   0  0  0  0  0  4  0  0  0  0  0  0
    7.0143   -1.5833    0.0000 N   0  0  0  0  0  3  0  0  0  0  0  0
    7.8059   -2.6511    0.0000 C   0  0  0  0  0  4  0  0  0  0  0  0
    6.9038   -5.3113    0.0000 O   0  0  0  0  0  2  0  0  0  0  0  0
    1.1414   -5.9833    0.0000 C   0  0  0  0  0  4  0  0  0  0  0  0
    0.0000   -3.9858    0.0000 C   0  0  0  0  0  4  0  0  0  0  0  0
    4.6025    0.0000    0.0000 N   0  0  0  0  0  3  0  0  0  0  0  0
    8.0452   -5.9833    0.0000 C   0  0  0  0  0  4  0  0  0  0  0  0
    0.0000   -5.3113    0.0000 C   0  0  0  0  0  4  0  0  0  0  0  0
    9.2051   -5.3113    0.0000 C   0  0  0  0  0  4  0  0  0  0  0  0
  1  2  2  0  0  0  0 
  1  3  1  0  0  0  0 
  1  4  1  0  0  0  0 
  2  5  1  0  0  0  0 
  2  6  1  0  0  0  0 
  3  7  1  0  0  0  0 
  3  8  2  0  0  0  0 
  4  9  1  0  0  0  0 
  5 10  2  0  0  0  0 
  5 11  1  0  0  0  0 
  6 12  2  0  0  0  0 
  7 13  1  0  0  0  0 
  7 12  1  0  0  0  0 
  8 14  1  0  0  0  0 
  9 15  1  0  0  0  0 
 10 16  1  0  0  0  0 
 11 17  2  0  0  0  0 
 12 18  1  0  0  0  0 
 13 14  2  0  0  0  0 
 15 19  1  0  0  0  0 
 16 20  2  0  0  0  0 
 17 20  1  0  0  0  0 
 19 21  1  0  0  0  0 
M  END
> <CDK Fingerprint>
CKAAgkmKIk0AYICKAEQAgSaCQmEADgDAoAyISQMYDAIkQITpwYhJAEGIEACUAA6QqGIIgB1CjABAAAQAQCAQAYEEBEAUBIAAwUBEAUIMHAACAICDpAGQazSAEoGgBIgAIAABAEggEHZFCEEG/AmhAAoEDCiAgwggEAgYCoICeQI=

> <ActivityOutcome_CPDBAS_Rat>
active

> <TD50_Rat_mmol>
1.93

$$$$

  CDK     0721101958

 21 22  0  0  0  0  0  0  0  0999 V2000
    1.1524   -1.9882    0.0000 O   0  0  0  0  0  2  0  0  0  0  0  0
    1.1524   -3.3178    0.0000 C   0  0  0  0  0  4  0  0  0  0  0  0
    2.3048   -3.9890    0.0000 C   0  0  0  0  0  4  0  0  0  0  0  0
    3.4571   -3.3178    0.0000 C   0  0  0  0  0  4  0  0  0  0  0  0
    4.6095   -3.9890    0.0000 C   0  0  0  0  0  4  0  0  0  0  0  0
    4.6095   -5.3187    0.0000 C   0  0  0  0  0  4  0  0  0  0  0  0
    3.4571   -5.9772    0.0000 C   0  0  0  0  0  4  0  0  0  0  0  0
    2.3048   -5.3187    0.0000 C   0  0  0  0  0  4  0  0  0  0  0  0
    1.1524   -5.9772    0.0000 O   0  0  0  0  0  2  0  0  0  0  0  0
    5.7619   -3.3178    0.0000 N   0  0  0  0  0  3  0  0  0  0  0  0
    6.9016   -3.9890    0.0000 N   0  0  0  0  0  3  0  0  0  0  0  0
    8.0540   -3.3178    0.0000 C   0  0  0  0  0  4  0  0  0  0  0  0
    8.0540   -1.9882    0.0000 C   0  0  0  0  0  4  0  0  0  0  0  0
    9.2063   -1.3297    0.0000 C   0  0  0  0  0  4  0  0  0  0  0  0
   10.3587   -1.9882    0.0000 C   0  0  0  0  0  4  0  0  0  0  0  0
   10.3587   -3.3178    0.0000 C   0  0  0  0  0  4  0  0  0  0  0  0
    9.2063   -3.9890    0.0000 C   0  0  0  0  0  4  0  0  0  0  0  0
   11.5111   -1.3297    0.0000 C   0  0  0  0  0  4  0  0  0  0  0  0
   11.5111    0.0000    0.0000 O   0  0  0  0  0  2  0  0  0  0  0  0
   12.6635   -1.9882    0.0000 O   0  0  0  0  0  2  0  0  0  0  0  0
    0.0000   -3.9890    0.0000 O   0  0  0  0  0  2  0  0  0  0  0  0
  1  2  2  0  0  0  0 
  2  3  1  0  0  0  0 
  2 21  1  0  0  0  0 
  3  4  2  0  0  0  0 
  3  8  1  0  0  0  0 
  4  5  1  0  0  0  0 
  5  6  2  0  0  0  0 
  5 10  1  0  0  0  0 
  6  7  1  0  0  0  0 
  7  8  2  0  0  0  0 
  8  9  1  0  0  0  0 
 10 11  2  0  0  0  0 
 11 12  1  0  0  0  0 
 12 13  2  0  0  0  0 
 12 17  1  0  0  0  0 
 13 14  1  0  0  0  0 
 14 15  2  0  0  0  0 
 15 16  1  0  0  0  0 
 15 18  1  0  0  0  0 
 16 17  2  0  0  0  0 
 18 19  2  0  0  0  0 
 18 20  1  0  0  0  0 
M  END
> <CDK Fingerprint>
QAAgAIACAAIAAYIgAAABAABBAABgCAAEVAJAAAJpEAAABAAAEAAEAEAAIAQAIAAAACBAAQAAIABAEAAGAIIAAAABqAAAAQAAAIAAAwAAAAAhAQCgEAAAAIEAIABAAEAkJACgABAiQAAAGADACCCAUApAIAEQAAADEAA=

> <ActivityOutcome_CPDBAS_Rat>
inactive

$$$$

  CDK     0721101958

  8  8  0  0  0  0  0  0  0  0999 V2000
    0.0000    0.0000    0.0000 O   0  0  0  0  0  2  0  0  0  0  0  0
    0.6654   -1.1540    0.0000 C   0  0  0  0  0  4  0  0  0  0  0  0
    1.9962   -1.1540    0.0000 C   0  0  0  0  0  4  0  0  0  0  0  0
    2.6569    0.0000    0.0000 C   0  0  0  0  0  4  0  0  0  0  0  0
    3.9877    0.0000    0.0000 C   0  0  0  0  0  4  0  0  0  0  0  0
    4.6531   -1.1540    0.0000 C   0  0  0  0  0  4  0  0  0  0  0  0
    3.9877   -2.3033    0.0000 C   0  0  0  0  0  4  0  0  0  0  0  0
    2.6569   -2.3033    0.0000 C   0  0  0  0  0  4  0  0  0  0  0  0
  1  2  2  0  0  0  0 
  2  3  1  0  0  0  0 
  3  4  2  0  0  0  0 
  3  8  1  0  0  0  0 
  4  5  1  0  0  0  0 
  5  6  2  0  0  0  0 
  6  7  1  0  0  0  0 
  7  8  2  0  0  0  0 
M  END
> <CDK Fingerprint>
AIAAAAAAAAAAAAAAAAAAAAAAAAAAAAAAAABoAAAABAAAAAAAAAAAIAAAAAAAAABAAAAAAAAAAAAEAAAAAAAAAAAAAAAAAAAAAAAAAAAAAACAAAAAAIAAIABAAEAgAAAAAAACQAAAAAAAAACAEAhAAAAAAAAAAAA=

> <ActivityOutcome_CPDBAS_Rat>
inactive

$$$$

  CDK     0721101958

  6  6  0  0  0  0  0  0  0  0999 V2000
    2.3036   -1.9950    0.0000 C   0  0  0  0  0  4  0  0  0  0  0  0
    1.1518   -2.6600    0.0000 C   0  0  0  0  0  4  0  0  0  0  0  0
    0.0000   -1.9950    0.0000 C   0  0  0  0  0  4  0  0  0  0  0  0
    0.0000   -0.6650    0.0000 C   0  0  0  0  0  4  0  0  0  0  0  0
    1.1518    0.0000    0.0000 C   0  0  0  0  0  4  0  0  0  0  0  0
    2.3036   -0.6650    0.0000 C   0  0  0  0  0  4  0  0  0  0  0  0
  1  2  2  0  0  0  0 
  1  6  1  0  0  0  0 
  2  3  1  0  0  0  0 
  3  4  2  0  0  0  0 
  4  5  1  0  0  0  0 
  5  6  2  0  0  0  0 
M  END
> <CDK Fingerprint>
QAAAAAAAAAAAAAAAAAAAAAAAAAAAQAAAAAAAAAAAAAAAAAAAAAAAAAAAAAAAAAAAAAAAAAAAAAAAAAAAACAAAAAAIAAAAAAAAgAAAAAAAAAAgAAAAAAAAAAAAAAA

> <ActivityOutcome_CPDBAS_Rat>
active

> <TD50_Rat_mmol>
2.16

$$$$

  CDK     0721101958

 14 15  0  0  0  0  0  0  0  0999 V2000
    9.3153   -1.1458    0.0000 N   0  0  0  0  0  3  0  0  0  0  0  0
    7.9832   -1.1458    0.0000 C   0  0  0  0  0  4  0  0  0  0  0  0
    7.3218   -2.3009    0.0000 C   0  0  0  0  0  4  0  0  0  0  0  0
    5.9897   -2.3009    0.0000 C   0  0  0  0  0  4  0  0  0  0  0  0
    5.3190   -1.1458    0.0000 C   0  0  0  0  0  4  0  0  0  0  0  0
    3.9963   -1.1458    0.0000 C   0  0  0  0  0  4  0  0  0  0  0  0
    3.3256   -2.3009    0.0000 C   0  0  0  0  0  4  0  0  0  0  0  0
    1.9935   -2.3009    0.0000 C   0  0  0  0  0  4  0  0  0  0  0  0
    1.3321   -1.1458    0.0000 C   0  0  0  0  0  4  0  0  0  0  0  0
    0.0000   -1.1458    0.0000 N   0  0  0  0  0  3  0  0  0  0  0  0
    1.9935    0.0000    0.0000 C   0  0  0  0  0  4  0  0  0  0  0  0
    3.3256    0.0000    0.0000 C   0  0  0  0  0  4  0  0  0  0  0  0
    5.9897    0.0000    0.0000 C   0  0  0  0  0  4  0  0  0  0  0  0
    7.3218    0.0000    0.0000 C   0  0  0  0  0  4  0  0  0  0  0  0
  1  2  1  0  0  0  0 
  2  3  2  0  0  0  0 
  2 14  1  0  0  0  0 
  3  4  1  0  0  0  0 
  4  5  2  0  0  0  0 
  5  6  1  0  0  0  0 
  5 13  1  0  0  0  0 
  6  7  2  0  0  0  0 
  6 12  1  0  0  0  0 
  7  8  1  0  0  0  0 
  8  9  2  0  0  0  0 
  9 10  1  0  0  0  0 
  9 11  1  0  0  0  0 
 11 12  2  0  0  0  0 
 13 14  2  0  0  0  0 
M  END
> <CDK Fingerprint>
IAQAAAAAAAAAAAAAABAAQUAAAAACBAADAAAAYAAAAAAAAAAAAAAAACAAAAAAAAQAQAAAAAAAAAAABAAAAAAAAAAAAAAAAABAAAAAAAAAAAAAgAAAAACAACAAAABAIAAAAABAAkABAAAAAAAIgIAAABAICAAAAhAA

> <ActivityOutcome_CPDBAS_Rat>
active

> <TD50_Rat_mmol>
0.00939

$$$$

  CDK     0721101958

 20 24  0  0  0  0  0  0  0  0999 V2000
    4.6494    0.0000    0.0000 C   0  0  0  0  0  4  0  0  0  0  0  0
    5.9803    0.0000    0.0000 C   0  0  0  0  0  4  0  0  0  0  0  0
    6.6457   -1.1494    0.0000 C   0  0  0  0  0  4  0  0  0  0  0  0
    7.9766   -1.1494    0.0000 C   0  0  0  0  0  4  0  0  0  0  0  0
    8.6421   -2.3074    0.0000 C   0  0  0  0  0  4  0  0  0  0  0  0
    7.9766   -3.4568    0.0000 C   0  0  0  0  0  4  0  0  0  0  0  0
    6.6457   -3.4568    0.0000 C   0  0  0  0  0  4  0  0  0  0  0  0
    5.9803   -4.6062    0.0000 C   0  0  0  0  0  4  0  0  0  0  0  0
    4.6494   -4.6062    0.0000 C   0  0  0  0  0  4  0  0  0  0  0  0
    3.9926   -3.4568    0.0000 C   0  0  0  0  0  4  0  0  0  0  0  0
    4.6494   -2.3074    0.0000 C   0  0  0  0  0  4  0  0  0  0  0  0
    5.9803   -2.3074    0.0000 C   0  0  0  0  0  4  0  0  0  0  0  0
    3.9926   -1.1494    0.0000 C   0  0  0  0  0  4  0  0  0  0  0  0
    2.6618   -1.1494    0.0000 C   0  0  0  0  0  4  0  0  0  0  0  0
    1.9963   -2.3074    0.0000 C   0  0  0  0  0  4  0  0  0  0  0  0
    2.6618   -3.4568    0.0000 C   0  0  0  0  0  4  0  0  0  0  0  0
    0.6654   -2.3074    0.0000 C   0  0  0  0  0  4  0  0  0  0  0  0
    0.0000   -1.1494    0.0000 C   0  0  0  0  0  4  0  0  0  0  0  0
    0.6654    0.0000    0.0000 C   0  0  0  0  0  4  0  0  0  0  0  0
    1.9963    0.0000    0.0000 C   0  0  0  0  0  4  0  0  0  0  0  0
  1  2  2  0  0  0  0 
  1 13  1  0  0  0  0 
  2  3  1  0  0  0  0 
  3  4  2  0  0  0  0 
  3 12  1  0  0  0  0 
  4  5  1  0  0  0  0 
  5  6  2  0  0  0  0 
  6  7  1  0  0  0  0 
  7  8  2  0  0  0  0 
  7 12  1  0  0  0  0 
  8  9  1  0  0  0  0 
  9 10  2  0  0  0  0 
 10 11  1  0  0  0  0 
 10 16  1  0  0  0  0 
 11 12  2  0  0  0  0 
 11 13  1  0  0  0  0 
 13 14  2  0  0  0  0 
 14 15  1  0  0  0  0 
 14 20  1  0  0  0  0 
 15 16  2  0  0  0  0 
 15 17  1  0  0  0  0 
 17 18  2  0  0  0  0 
 18 19  1  0  0  0  0 
 19 20  2  0  0  0  0 
M  END
> <CDK Fingerprint>
QAAAAAAAAAAAAAAAAAAAAAAAAAAAQAAAAACAAAAAAAAAAACAAAAAAAAAAAAAAAAAAAAAAAAAAAAAAAAAACAAAAAAIAAAAAAAAgAAAAAAAAAAgAAAAEAAAAAAAAAA

> <ActivityOutcome_CPDBAS_Rat>
active

> <TD50_Rat_mmol>
0.00379

$$$$

  CDK     0721101958

  9 10  0  0  0  0  0  0  0  0999 V2000
    0.7831   -0.2523    0.0000 C   0  0  0  0  0  4  0  0  0  0  0  0
    0.0000   -1.3269    0.0000 C   0  0  0  0  0  4  0  0  0  0  0  0
    0.7831   -2.4059    0.0000 O   0  0  0  0  0  2  0  0  0  0  0  0
    2.0448   -1.9926    0.0000 C   0  0  0  0  0  4  0  0  0  0  0  0
    2.0448   -0.6613    0.0000 C   0  0  0  0  0  4  0  0  0  0  0  0
    3.1977    0.0000    0.0000 C   0  0  0  0  0  4  0  0  0  0  0  0
    4.3506   -0.6613    0.0000 C   0  0  0  0  0  4  0  0  0  0  0  0
    4.3506   -1.9926    0.0000 C   0  0  0  0  0  4  0  0  0  0  0  0
    3.1977   -2.6582    0.0000 C   0  0  0  0  0  4  0  0  0  0  0  0
  1  2  2  0  0  0  0 
  1  5  1  0  0  0  0 
  2  3  1  0  0  0  0 
  3  4  1  0  0  0  0 
  4  5  2  0  0  0  0 
  4  9  1  0  0  0  0 
  5  6  1  0  0  0  0 
  6  7  2  0  0  0  0 
  7  8  1  0  0  0  0 
  8  9  2  0  0  0  0 
M  END
> <CDK Fingerprint>
AQQAAAAgAAAAACAAgAAAAqAAAAAAQAAAAAAAAAAAAAAAYAACAAAAAAAAAQABAAAASAAAAAAAQAAAAACAAAAAAAAAAAKAAAAAAAAAAAAAAAACAAAABAAAAAAAAAAAACAAQACQIAgAAAACAgAAAAAAAAAAgAAAAAAAAABAAAAB

> <ActivityOutcome_CPDBAS_Rat>
active

> <TD50_Rat_mmol>
3.59

$$$$

  CDK     0721101958

 14 15  0  0  0  0  0  0  0  0999 V2000
    6.9132   -3.9889    0.0000 N   0  0  0  0  0  3  0  0  0  0  0  0
    5.7587   -3.3252    0.0000 C   0  0  0  0  0  4  0  0  0  0  0  0
    4.6111   -3.9889    0.0000 N   0  0  0  0  0  3  0  0  0  0  0  0
    3.4566   -3.3252    0.0000 C   0  0  0  0  0  4  0  0  0  0  0  0
    3.4566   -1.9979    0.0000 N   0  0  0  0  0  3  0  0  0  0  0  0
    4.6111   -1.3273    0.0000 C   0  0  0  0  0  4  0  0  0  0  0  0
    5.7587   -1.9979    0.0000 N   0  0  0  0  0  3  0  0  0  0  0  0
    4.6111    0.0000    0.0000 N   0  0  0  0  0  3  0  0  0  0  0  0
    2.3021   -3.9889    0.0000 C   0  0  0  0  0  4  0  0  0  0  0  0
    2.3021   -5.3231    0.0000 C   0  0  0  0  0  4  0  0  0  0  0  0
    1.1545   -5.9868    0.0000 C   0  0  0  0  0  4  0  0  0  0  0  0
    0.0000   -5.3231    0.0000 C   0  0  0  0  0  4  0  0  0  0  0  0
    0.0000   -3.9889    0.0000 C   0  0  0  0  0  4  0  0  0  0  0  0
    1.1545   -3.3252    0.0000 C   0  0  0  0  0  4  0  0  0  0  0  0
  1  2  1  0  0  0  0 
  2  3  2  0  0  0  0 
  2  7  1  0  0  0  0 
  3  4  1  0  0  0  0 
  4  5  2  0  0  0  0 
  4  9  1  0  0  0  0 
  5  6  1  0  0  0  0 
  6  7  2  0  0  0  0 
  6  8  1  0  0  0  0 
  9 10  2  0  0  0  0 
  9 14  1  0  0  0  0 
 10 11  1  0  0  0  0 
 11 12  2  0  0  0  0 
 12 13  1  0  0  0  0 
 13 14  2  0  0  0  0 
M  END
> <CDK Fingerprint>
IAACCIACBQBAAAAAAAAAAIAAIAAAAMAAAAAAAAAAAgAAgGAAAAAAAYAAAAAAAAAgAAADEEAAAEAAAAAAAAAAAAQAABQAgAAAQAAAAAAAAAIAAAAAAQAIIIAAgAAAgAAgAAAAQCAANAAIAAJUBIAAAAAAAIABGAAAAAAIAgIQAg==

> <ActivityOutcome_CPDBAS_Rat>
inactive

$$$$

  CDK     0721101958

  9  9  0  0  0  0  0  0  0  0999 V2000
    0.0000    0.0000    0.0000 O   0  0  0  0  0  2  0  0  0  0  0  0
    0.7000    1.2091    0.0000 C   0  0  0  0  0  4  0  0  0  0  0  0
    0.0000    2.4231    0.0000 O   0  0  0  0  0  2  0  0  0  0  0  0
    2.1000    1.2091    0.0000 C   0  0  0  0  0  4  0  0  0  0  0  0
    2.7952    2.4231    0.0000 C   0  0  0  0  0  4  0  0  0  0  0  0
    4.1952    2.4231    0.0000 C   0  0  0  0  0  4  0  0  0  0  0  0
    4.8952    1.2091    0.0000 C   0  0  0  0  0  4  0  0  0  0  0  0
    4.1952    0.0000    0.0000 C   0  0  0  0  0  4  0  0  0  0  0  0
    2.7952    0.0000    0.0000 C   0  0  0  0  0  4  0  0  0  0  0  0
  1  2  1  0  0  0  0 
  2  3  2  0  0  0  0 
  2  4  1  0  0  0  0 
  4  5  2  0  0  0  0 
  4  9  1  0  0  0  0 
  5  6  1  0  0  0  0 
  6  7  2  0  0  0  0 
  7  8  1  0  0  0  0 
  8  9  2  0  0  0  0 
M  END
> <CDK Fingerprint>
AIACAAAAAAAAAAAAAAAAAAAAAAAAAAAAAABoAAAABAAAAAAAAAAAIAAAAAAAACBAAAAAAAAAAAAEAAAAAAAAAAAAAAAAAAAAAAAAAAAAAACAEAAAAIAAIABAAEAgBAAAAAACQAAACACAAACAUAhAAAEAAAAAAAA=

> <ActivityOutcome_CPDBAS_Rat>
inactive

$$$$

  CDK     0721101958

 16 17  0  0  0  0  0  0  0  0999 V2000
    5.7559   -5.3191    0.0000 C   0  0  0  0  0  4  0  0  0  0  0  0
    4.6071   -5.9833    0.0000 C   0  0  0  0  0  4  0  0  0  0  0  0
    3.4523   -5.3191    0.0000 C   0  0  0  0  0  4  0  0  0  0  0  0
    3.4523   -3.9908    0.0000 C   0  0  0  0  0  4  0  0  0  0  0  0
    4.6071   -3.3267    0.0000 C   0  0  0  0  0  4  0  0  0  0  0  0
    5.7559   -3.9908    0.0000 C   0  0  0  0  0  4  0  0  0  0  0  0
    4.6071   -1.9924    0.0000 C   0  0  0  0  0  4  0  0  0  0  0  0
    3.4523   -1.3283    0.0000 C   0  0  0  0  0  4  0  0  0  0  0  0
    2.3036   -1.9924    0.0000 C   0  0  0  0  0  4  0  0  0  0  0  0
    2.3036   -3.3267    0.0000 C   0  0  0  0  0  4  0  0  0  0  0  0
    1.1488   -3.9908    0.0000 C   0  0  0  0  0  4  0  0  0  0  0  0
    0.0000   -3.3267    0.0000 C   0  0  0  0  0  4  0  0  0  0  0  0
    0.0000   -1.9924    0.0000 C   0  0  0  0  0  4  0  0  0  0  0  0
    1.1488   -1.3283    0.0000 C   0  0  0  0  0  4  0  0  0  0  0  0
    3.4523    0.0000    0.0000 O   0  0  0  0  0  2  0  0  0  0  0  0
    5.7559   -1.3283    0.0000 O   0  0  0  0  0  2  0  0  0  0  0  0
  1  2  2  0  0  0  0 
  1  6  1  0  0  0  0 
  2  3  1  0  0  0  0 
  3  4  2  0  0  0  0 
  4  5  1  0  0  0  0 
  5  6  2  0  0  0  0 
  5  7  1  0  0  0  0 
  7  8  1  0  0  0  0 
  7 16  1  0  0  0  0 
  8  9  1  0  0  0  0 
  8 15  2  0  0  0  0 
  9 10  2  0  0  0  0 
  9 14  1  0  0  0  0 
 10 11  1  0  0  0  0 
 11 12  2  0  0  0  0 
 12 13  1  0  0  0  0 
 13 14  2  0  0  0  0 
M  END
> <CDK Fingerprint>
AIASAgAAAAAIAAAAAAAAAAQAAAAAAAQIABBoAAAABAAAAAAAAAAQIAAAAAAAACBAAAAAUAAAAAAMCCAAAAAABAAQAAAABAAAIAQAAAAAAACAEAAAAoAAIAhAAEAgBAAAAAACQBAECYCAHACAEAhEAAEAACABQAA=

> <ActivityOutcome_CPDBAS_Rat>
inactive

$$$$

  CDK     0721101958

  9 10  0  0  0  0  0  0  0  0999 V2000
    0.7831   -2.4059    0.0000 N   0  0  0  0  0  3  0  0  0  0  0  0
    2.0448   -1.9926    0.0000 C   0  0  0  0  0  4  0  0  0  0  0  0
    2.0448   -0.6613    0.0000 C   0  0  0  0  0  4  0  0  0  0  0  0
    3.1977    0.0000    0.0000 C   0  0  0  0  0  4  0  0  0  0  0  0
    4.3506   -0.6613    0.0000 C   0  0  0  0  0  4  0  0  0  0  0  0
    4.3506   -1.9926    0.0000 C   0  0  0  0  0  4  0  0  0  0  0  0
    3.1977   -2.6582    0.0000 C   0  0  0  0  0  4  0  0  0  0  0  0
    0.7831   -0.2523    0.0000 N   0  0  0  0  0  3  0  0  0  0  0  0
    0.0000   -1.3269    0.0000 N   0  0  0  0  0  3  0  0  0  0  0  0
  1  2  1  0  0  0  0 
  1  9  1  0  0  0  0 
  2  3  2  0  0  0  0 
  2  7  1  0  0  0  0 
  3  4  1  0  0  0  0 
  3  8  1  0  0  0  0 
  4  5  2  0  0  0  0 
  5  6  1  0  0  0  0 
  6  7  2  0  0  0  0 
  8  9  2  0  0  0  0 
M  END
> <CDK Fingerprint>
AgCYAAAAAAAoAAAAAAAECAACAAAABAIAAAAAAAAAACBgAAAAAAACAAAEAAAAAAAQAAAAAABAAAAgAAAAAAAAAAAAAAAAAAAgCAAIgAAAAAIKAIAAAAAAIAAAAAAAIEAAAAAgABAAAAACIAAAIAAAAACAAAAIAAAAAAAAEAA=

> <ActivityOutcome_CPDBAS_Rat>
inactive

$$$$

  CDK     0721101958

 11 11  0  0  0  0  0  0  0  0999 V2000
    0.0000   -2.3079    0.0000 C   0  0  0  0  0  4  0  0  0  0  0  0
    0.6651   -1.1573    0.0000 C   0  0  0  0  0  4  0  0  0  0  0  0
    0.0000    0.0000    0.0000 O   0  0  0  0  0  2  0  0  0  0  0  0
    1.9953   -1.1573    0.0000 O   0  0  0  0  0  2  0  0  0  0  0  0
    2.6605   -2.3079    0.0000 C   0  0  0  0  0  4  0  0  0  0  0  0
    3.9907   -2.3079    0.0000 C   0  0  0  0  0  4  0  0  0  0  0  0
    4.6558   -1.1573    0.0000 C   0  0  0  0  0  4  0  0  0  0  0  0
    5.9860   -1.1573    0.0000 C   0  0  0  0  0  4  0  0  0  0  0  0
    6.6511   -2.3079    0.0000 C   0  0  0  0  0  4  0  0  0  0  0  0
    5.9860   -3.4586    0.0000 C   0  0  0  0  0  4  0  0  0  0  0  0
    4.6558   -3.4586    0.0000 C   0  0  0  0  0  4  0  0  0  0  0  0
  1  2  1  0  0  0  0 
  2  3  2  0  0  0  0 
  2  4  1  0  0  0  0 
  4  5  1  0  0  0  0 
  5  6  1  0  0  0  0 
  6  7  2  0  0  0  0 
  6 11  1  0  0  0  0 
  7  8  1  0  0  0  0 
  8  9  2  0  0  0  0 
  9 10  1  0  0  0  0 
 10 11  2  0  0  0  0 
M  END
> <CDK Fingerprint>
AgAAAAAAAAAAAgACAAAAAAABAAAAAAAAgAAAAIAAAAAAAABgAIAAAAAAAAAAAABAIAIAAAAAACBAAAAAAAAAAAAMAAAAAAAAAAAAAAIAAAAAAgAAAAAAAACAEEAAIIAAIIBAAEAgBAAAAAACQAgACACAAACAUAAAABEAIAAAIAA=

> <ActivityOutcome_CPDBAS_Rat>
inactive

$$$$

  CDK     0721101958

  8  8  0  0  0  0  0  0  0  0999 V2000
    0.0000    0.0000    0.0000 O   0  0  0  0  0  2  0  0  0  0  0  0
    0.6654   -1.1540    0.0000 C   0  0  0  0  0  4  0  0  0  0  0  0
    1.9962   -1.1540    0.0000 C   0  0  0  0  0  4  0  0  0  0  0  0
    2.6569    0.0000    0.0000 C   0  0  0  0  0  4  0  0  0  0  0  0
    3.9877    0.0000    0.0000 C   0  0  0  0  0  4  0  0  0  0  0  0
    4.6531   -1.1540    0.0000 C   0  0  0  0  0  4  0  0  0  0  0  0
    3.9877   -2.3033    0.0000 C   0  0  0  0  0  4  0  0  0  0  0  0
    2.6569   -2.3033    0.0000 C   0  0  0  0  0  4  0  0  0  0  0  0
  1  2  1  0  0  0  0 
  2  3  1  0  0  0  0 
  3  4  2  0  0  0  0 
  3  8  1  0  0  0  0 
  4  5  1  0  0  0  0 
  5  6  2  0  0  0  0 
  6  7  1  0  0  0  0 
  7  8  2  0  0  0  0 
M  END
> <CDK Fingerprint>
AgAAAAAAAAAAAAAAAAAAAAAAAAAAAAAAYAAAAAAAAAAAAAAAACAAAAAAAAAgQAAAAAAAAAAABAAAAAAAAAAAAAAAAAAAAAAAAAAAAAAAgBAAAACAACAAAABAIAQAAAAAAkAAAAgAgAAAgAAAAAABAAAAAAAA

> <ActivityOutcome_CPDBAS_Rat>
inactive

$$$$

  CDK     0721101958

  8  8  0  0  0  0  0  0  0  0999 V2000
    0.0000    0.0000    0.0000 Cl  0  0  0  0  0  1  0  0  0  0  0  0
    0.6654   -1.1540    0.0000 C   0  0  0  0  0  4  0  0  0  0  0  0
    1.9962   -1.1540    0.0000 C   0  0  0  0  0  4  0  0  0  0  0  0
    2.6569    0.0000    0.0000 C   0  0  0  0  0  4  0  0  0  0  0  0
    3.9877    0.0000    0.0000 C   0  0  0  0  0  4  0  0  0  0  0  0
    4.6531   -1.1540    0.0000 C   0  0  0  0  0  4  0  0  0  0  0  0
    3.9877   -2.3033    0.0000 C   0  0  0  0  0  4  0  0  0  0  0  0
    2.6569   -2.3033    0.0000 C   0  0  0  0  0  4  0  0  0  0  0  0
  1  2  1  0  0  0  0 
  2  3  1  0  0  0  0 
  3  4  2  0  0  0  0 
  3  8  1  0  0  0  0 
  4  5  1  0  0  0  0 
  5  6  2  0  0  0  0 
  6  7  1  0  0  0  0 
  7  8  2  0  0  0  0 
M  END
> <CDK Fingerprint>
AIAAAAAAQADAAAAAAAAAAAAAAAAAIAIAAAIAAABAAAAAAAAAAQEEAAAAAAAAAAAAAAAAAAAAAAACAAAAAACAAAAAAIAAIAAAAEAgAAAAAAACQAAAAAAAAACAAAAAAAAAAAAAAAA=

> <ActivityOutcome_CPDBAS_Rat>
inactive

$$$$

  CDK     0721101958

 15 16  0  0  0  0  0  0  0  0999 V2000
    0.0000   -3.9892    0.0000 O   0  0  0  0  0  2  0  0  0  0  0  0
    1.1502   -4.6541    0.0000 C   0  0  0  0  0  4  0  0  0  0  0  0
    2.3004   -3.9892    0.0000 C   0  0  0  0  0  4  0  0  0  0  0  0
    3.4573   -4.6541    0.0000 C   0  0  0  0  0  4  0  0  0  0  0  0
    3.4573   -5.9838    0.0000 C   0  0  0  0  0  4  0  0  0  0  0  0
    2.3004   -6.6487    0.0000 C   0  0  0  0  0  4  0  0  0  0  0  0
    1.1502   -5.9838    0.0000 C   0  0  0  0  0  4  0  0  0  0  0  0
    4.6075   -6.6487    0.0000 Cl  0  0  0  0  0  1  0  0  0  0  0  0
    2.3004   -2.6595    0.0000 C   0  0  0  0  0  4  0  0  0  0  0  0
    3.4573   -1.9946    0.0000 C   0  0  0  0  0  4  0  0  0  0  0  0
    3.4573   -0.6649    0.0000 C   0  0  0  0  0  4  0  0  0  0  0  0
    4.6075    0.0000    0.0000 C   0  0  0  0  0  4  0  0  0  0  0  0
    5.7577   -0.6649    0.0000 C   0  0  0  0  0  4  0  0  0  0  0  0
    5.7577   -1.9946    0.0000 C   0  0  0  0  0  4  0  0  0  0  0  0
    4.6075   -2.6595    0.0000 C   0  0  0  0  0  4  0  0  0  0  0  0
  1  2  1  0  0  0  0 
  2  3  2  0  0  0  0 
  2  7  1  0  0  0  0 
  3  4  1  0  0  0  0 
  3  9  1  0  0  0  0 
  4  5  2  0  0  0  0 
  5  6  1  0  0  0  0 
  5  8  1  0  0  0  0 
  6  7  2  0  0  0  0 
  9 10  1  0  0  0  0 
 10 11  2  0  0  0  0 
 10 15  1  0  0  0  0 
 11 12  1  0  0  0  0 
 12 13  2  0  0  0  0 
 13 14  1  0  0  0  0 
 14 15  2  0  0  0  0 
M  END
> <CDK Fingerprint>
AQAAAAAAAAAAAAACAIoAABABAAAAAAAAAAAAAAAAAAAoAALhAAAAAAAAAABCAAAAIAAAIAAAAABAAQAAQAAAAQAGCAAABAABAAAAAAAAIqAIAgAAAAAAAAGBAAAAAIAAIIAAAMAgJACAAAAWQAAEAAEAFACAAABBAAAAAAAAAAA=

> <ActivityOutcome_CPDBAS_Rat>
inactive

$$$$

  CDK     0721101958

 10 10  0  0  0  0  0  0  0  0999 V2000
    7.3155   -2.3044    0.0000 S   0  0  0  0  0  2  0  0  0  0  0  0
    5.9841   -2.3044    0.0000 C   0  0  0  0  0  4  0  0  0  0  0  0
    4.6526   -2.3044    0.0000 N   0  0  0  0  0  3  0  0  0  0  0  0
    3.9869   -1.1558    0.0000 C   0  0  0  0  0  4  0  0  0  0  0  0
    2.6628   -1.1558    0.0000 C   0  0  0  0  0  4  0  0  0  0  0  0
    1.9971   -2.3044    0.0000 C   0  0  0  0  0  4  0  0  0  0  0  0
    0.6657   -2.3044    0.0000 C   0  0  0  0  0  4  0  0  0  0  0  0
    0.0000   -1.1558    0.0000 C   0  0  0  0  0  4  0  0  0  0  0  0
    0.6657    0.0000    0.0000 C   0  0  0  0  0  4  0  0  0  0  0  0
    1.9971    0.0000    0.0000 C   0  0  0  0  0  4  0  0  0  0  0  0
  1  2  2  0  0  0  0 
  2  3  2  0  0  0  0 
  3  4  1  0  0  0  0 
  4  5  1  0  0  0  0 
  5  6  2  0  0  0  0 
  5 10  1  0  0  0  0 
  6  7  1  0  0  0  0 
  7  8  2  0  0  0  0 
  8  9  1  0  0  0  0 
  9 10  2  0  0  0  0 
M  END
> <CDK Fingerprint>
AIAAAAAAQABCAAAAAAAAAAAgAAgAAAAAAAAAAIAAACQAAAFgCAAAAAAAAAAAAAACIAAAAAAAAARAAAAAAAAEAAAEAAAAAAAAAAAAAAAgAAAAAAAAAAAAAACQAAAAAIAAIAAAAEAgEQAAEAACwAAAAEAAAACAAUAAAAAAAAACAAA=

> <ActivityOutcome_CPDBAS_Rat>
inactive

$$$$

  CDK     0721101958

 10 10  0  0  0  0  0  0  0  0999 V2000
    5.3173   -2.3077    0.0000 N   0  0  0  0  0  3  0  0  0  0  0  0
    4.6527   -1.1539    0.0000 C   0  0  0  0  0  4  0  0  0  0  0  0
    3.9880    0.0000    0.0000 S   0  0  0  0  0  2  0  0  0  0  0  0
    2.6587    0.0000    0.0000 C   0  0  0  0  0  4  0  0  0  0  0  0
    1.9940   -1.1539    0.0000 C   0  0  0  0  0  4  0  0  0  0  0  0
    2.6587   -2.3077    0.0000 C   0  0  0  0  0  4  0  0  0  0  0  0
    1.9940   -3.4563    0.0000 C   0  0  0  0  0  4  0  0  0  0  0  0
    0.6647   -3.4563    0.0000 C   0  0  0  0  0  4  0  0  0  0  0  0
    0.0000   -2.3077    0.0000 C   0  0  0  0  0  4  0  0  0  0  0  0
    0.6647   -1.1539    0.0000 C   0  0  0  0  0  4  0  0  0  0  0  0
  1  2  3  0  0  0  0 
  2  3  1  0  0  0  0 
  3  4  1  0  0  0  0 
  4  5  1  0  0  0  0 
  5  6  2  0  0  0  0 
  5 10  1  0  0  0  0 
  6  7  1  0  0  0  0 
  7  8  2  0  0  0  0 
  8  9  1  0  0  0  0 
  9 10  2  0  0  0  0 
M  END
> <CDK Fingerprint>
BAAAAAAAAAAAAAAAAWAgAAAMAAAAAAAAAAAgACBAAAAAAEAAgAAAAAAAACwAAAEAAAACIAAAAAAAAAAQAACACAAAEIAAAAAAgAAgAAEAQCEAAIAAAALAAAAAACAAAIAAACAAAAAAAAAAAA==

> <ActivityOutcome_CPDBAS_Rat>
inactive

$$$$

  CDK     0721101958

 17 18  0  0  0  0  0  0  0  0999 V2000
    0.1196   -7.4749    0.0000 O   0  0  0  0  0  1  0  0  0  0  0  0
    1.9659   -5.9800    0.0000 C   0  0  0  0  0  4  0  0  0  0  0  0
    0.6578   -6.2565    0.0000 C   0  0  0  0  0  4  0  0  0  0  0  0
    2.1079   -4.6569    0.0000 N   0  0  0  0  0  4  0  0  0  0  0  0
    0.0000   -5.1054    0.0000 O   0  0  0  0  0  2  0  0  0  0  0  0
    0.8895   -4.1187    0.0000 N   0  0  0  0  0  3  0  0  0  0  0  0
    4.3953   -0.6578    0.0000 C   0  0  0  0  0  4  0  0  0  0  0  0
    4.3953   -1.9958    0.0000 C   0  0  0  0  0  4  0  0  0  0  0  0
    3.2591    0.0000    0.0000 C   0  0  0  0  0  4  0  0  0  0  0  0
    3.2591   -2.6611    0.0000 C   0  0  0  0  0  4  0  0  0  0  0  0
    2.1079   -0.6578    0.0000 C   0  0  0  0  0  4  0  0  0  0  0  0
    2.1079   -1.9958    0.0000 C   0  0  0  0  0  4  0  0  0  0  0  0
    3.2591   -3.9991    0.0000 C   0  0  0  0  0  4  0  0  0  0  0  0
    2.9526   -6.8770    0.0000 C   0  0  0  0  0  4  0  0  0  0  0  0
    4.2159   -6.4584    0.0000 C   0  0  0  0  0  4  0  0  0  0  0  0
    5.1951   -7.3553    0.0000 O   0  0  0  0  0  2  0  0  0  0  0  0
    4.4924   -5.1502    0.0000 N   0  0  0  0  0  3  0  0  0  0  0  0
  1  3  1  0  0  0  0 
  2  3  2  0  0  0  0 
  2  4  1  0  0  0  0 
  2 14  1  0  0  0  0 
  3  5  1  0  0  0  0 
  4  6  2  0  0  0  0 
  4 13  1  0  0  0  0 
  5  6  1  0  0  0  0 
  7  8  1  0  0  0  0 
  7  9  2  0  0  0  0 
  8 10  2  0  0  0  0 
  9 11  1  0  0  0  0 
 10 12  1  0  0  0  0 
 10 13  1  0  0  0  0 
 11 12  2  0  0  0  0 
 14 15  1  0  0  0  0 
 15 16  2  0  0  0  0 
 15 17  1  0  0  0  0 
M  CHG  1   1  -1
M  CHG  1   4   1
M  END
> <CDK Fingerprint>
BEACgIoBJeIAgiIhAYAAAKAgAIIAEgABAAgIBCCQJAIAAGQRABAgkCAAQUAAQAAgEYAgACAIAGAAAAJEJQoQgBQEqAAAABEACABBIBKICACAFiYCAQMAQKAIEIgTgQQgVEAAZCACQIQBMIJAImABQiAEAMBUIEABgAACKCIQAA==

> <ActivityOutcome_CPDBAS_Rat>
active

> <TD50_Rat_mmol>
0.0182

$$$$

  CDK     0721101958

  9  8  0  0  0  0  0  0  0  0999 V2000
    3.1476   -3.9893    0.0000 O   0  0  0  0  0  2  0  0  0  0  0  0
    1.9947   -3.3231    0.0000 C   0  0  0  0  0  4  0  0  0  0  0  0
    1.9947   -1.9947    0.0000 C   0  0  0  0  0  4  0  0  0  0  0  0
    0.6662   -1.9947    0.0000 C   0  0  0  0  0  4  0  0  0  0  0  0
    0.0000   -3.1476    0.0000 O   0  0  0  0  0  2  0  0  0  0  0  0
    1.9947   -0.6662    0.0000 C   0  0  0  0  0  4  0  0  0  0  0  0
    0.8417    0.0000    0.0000 Br  0  0  0  0  0  1  0  0  0  0  0  0
    3.3231   -1.9947    0.0000 C   0  0  0  0  0  4  0  0  0  0  0  0
    3.9893   -3.1476    0.0000 Br  0  0  0  0  0  1  0  0  0  0  0  0
  1  2  1  0  0  0  0 
  2  3  1  0  0  0  0 
  3  4  1  0  0  0  0 
  3  6  1  0  0  0  0 
  3  8  1  0  0  0  0 
  4  5  1  0  0  0  0 
  6  7  1  0  0  0  0 
  8  9  1  0  0  0  0 
M  END
> <CDK Fingerprint>
AgAAAAAAAAAAAAAAAgAAAAAAAACAAAAA4AAAAAAAAAAAAAAAECAAAAAAAAAAAAAAAEAAAAAAAAAAAAAAAAAAAAABAAAAAAAAAAAAAAAAABAAAAAAAAAAEQAAAAAAAAAAAAAAAAAAAAAAAAAgAAAAAAAAAAAA

> <ActivityOutcome_CPDBAS_Rat>
active

> <TD50_Rat_mmol>
0.424

$$$$

  CDK     0721101958

  9  8  0  0  0  0  0  0  0  0999 V2000
    1.1538   -1.9967    0.0000 C   0  0  0  0  0  4  0  0  0  0  0  0
    2.3007   -1.3334    0.0000 C   0  0  0  0  0  4  0  0  0  0  0  0
    2.3007    0.0000    0.0000 C   0  0  0  0  0  4  0  0  0  0  0  0
    3.4545   -1.9967    0.0000 O   0  0  0  0  0  2  0  0  0  0  0  0
    5.7552   -1.9967    0.0000 C   0  0  0  0  0  4  0  0  0  0  0  0
    4.6083   -1.3334    0.0000 C   0  0  0  0  0  4  0  0  0  0  0  0
    4.6083    0.0000    0.0000 C   0  0  0  0  0  4  0  0  0  0  0  0
    6.9090   -1.3334    0.0000 Cl  0  0  0  0  0  1  0  0  0  0  0  0
    0.0000   -1.3334    0.0000 Cl  0  0  0  0  0  1  0  0  0  0  0  0
  1  2  1  0  0  0  0 
  1  9  1  0  0  0  0 
  2  3  1  0  0  0  0 
  2  4  1  0  0  0  0 
  4  6  1  0  0  0  0 
  5  6  1  0  0  0  0 
  5  8  1  0  0  0  0 
  6  7  1  0  0  0  0 
M  END
> <CDK Fingerprint>
AgAAAAAAAAAAAAAAAIAAAAAAAAAAAAAA4AiAAAAAAAAAAAAAACACAAACAAAAAAAAAEAAAAEAAAAIAACAAAAAAAAAAAAAAAAAAAAAAAAQABAAAAAAAAAAAAAAAAAAAAAAAAAAAAAAAAEAAAAAAAAAAAAAAAAA

> <ActivityOutcome_CPDBAS_Rat>
inactive

$$$$

  CDK     0721101958

  5  4  0  0  0  0  0  0  0  0999 V2000
    0.0000   -0.6638    0.0000 Cl  0  0  0  0  0  1  0  0  0  0  0  0
    1.1525    0.0000    0.0000 C   0  0  0  0  0  4  0  0  0  0  0  0
    2.3050   -0.6638    0.0000 O   0  0  0  0  0  2  0  0  0  0  0  0
    3.4575    0.0000    0.0000 C   0  0  0  0  0  4  0  0  0  0  0  0
    4.6099   -0.6638    0.0000 Cl  0  0  0  0  0  1  0  0  0  0  0  0
  1  2  1  0  0  0  0 
  2  3  1  0  0  0  0 
  3  4  1  0  0  0  0 
  4  5  1  0  0  0  0 
M  END
> <CDK Fingerprint>
AgAAAAAAAAAAAAAAAIAAAAAAAAAAAAAA4AAAAAAAAAAAAAAAAAAAAAAEAAAAAAAAAAAAAAEAAAAAAAAAAAAAAAAAAAAAAAAAAAAAAAAAAAAAAAAAAAAAAAAAAAAAAAAAAAAAABgAAAAAAAAAAAAAAAAAAAAA

> <ActivityOutcome_CPDBAS_Rat>
active

> <TD50_Rat_mmol>
0.0000311

$$$$

  CDK     0721101958

 24 26  0  0  0  0  0  0  0  0999 V2000
    4.6004   -2.6721    0.0000 O   0  0  0  0  0  2  0  0  0  0  0  0
    8.0300   -0.6749    0.0000 C   0  0  0  0  0  4  0  0  0  0  0  0
    8.0300   -1.9972    0.0000 C   0  0  0  0  0  4  0  0  0  0  0  0
    6.9006    0.0000    0.0000 C   0  0  0  0  0  4  0  0  0  0  0  0
    6.9006   -2.6721    0.0000 C   0  0  0  0  0  4  0  0  0  0  0  0
    5.7436   -0.6749    0.0000 C   0  0  0  0  0  4  0  0  0  0  0  0
    5.7436   -1.9972    0.0000 C   0  0  0  0  0  4  0  0  0  0  0  0
    3.4434   -0.6749    0.0000 C   0  0  0  0  0  4  0  0  0  0  0  0
    3.4434   -1.9972    0.0000 C   0  0  0  0  0  4  0  0  0  0  0  0
    2.3002    0.0000    0.0000 C   0  0  0  0  0  4  0  0  0  0  0  0
    2.3002   -2.6721    0.0000 N   0  0  0  0  0  3  0  0  0  0  0  0
    1.1432   -0.6749    0.0000 C   0  0  0  0  0  4  0  0  0  0  0  0
    1.1432   -1.9972    0.0000 C   0  0  0  0  0  4  0  0  0  0  0  0
    4.6004    0.0000    0.0000 Cl  0  0  0  0  0  1  0  0  0  0  0  0
    0.0000    0.0000    0.0000 Cl  0  0  0  0  0  1  0  0  0  0  0  0
    9.1732    0.0000    0.0000 O   0  0  0  0  0  2  0  0  0  0  0  0
   13.7736   -2.6721    0.0000 Cl  0  0  0  0  0  1  0  0  0  0  0  0
    9.1732   -2.6721    0.0000 Cl  0  0  0  0  0  1  0  0  0  0  0  0
   12.6304   -0.6749    0.0000 C   0  0  0  0  0  4  0  0  0  0  0  0
   12.6304   -1.9972    0.0000 C   0  0  0  0  0  4  0  0  0  0  0  0
   11.4734    0.0000    0.0000 N   0  0  0  0  0  3  0  0  0  0  0  0
   11.4734   -2.6721    0.0000 C   0  0  0  0  0  4  0  0  0  0  0  0
   10.3302   -0.6749    0.0000 C   0  0  0  0  0  4  0  0  0  0  0  0
   10.3302   -1.9972    0.0000 C   0  0  0  0  0  4  0  0  0  0  0  0
  1  7  1  0  0  0  0 
  1  9  1  0  0  0  0 
  2  3  1  0  0  0  0 
  2  4  2  0  0  0  0 
  2 16  1  0  0  0  0 
  3  5  2  0  0  0  0 
  4  6  1  0  0  0  0 
  5  7  1  0  0  0  0 
  6  7  2  0  0  0  0 
  8  9  1  0  0  0  0 
  8 10  2  0  0  0  0 
  8 14  1  0  0  0  0 
  9 11  2  0  0  0  0 
 10 12  1  0  0  0  0 
 11 13  1  0  0  0  0 
 12 13  2  0  0  0  0 
 12 15  1  0  0  0  0 
 16 23  1  0  0  0  0 
 17 20  1  0  0  0  0 
 18 24  1  0  0  0  0 
 19 20  1  0  0  0  0 
 19 21  2  0  0  0  0 
 20 22  2  0  0  0  0 
 21 23  1  0  0  0  0 
 22 24  1  0  0  0  0 
 23 24  2  0  0  0  0 
M  END
> <CDK Fingerprint>
QBgAAgCwAgAQCIBOAAABAAAIAAADgABAhAACCAABCAQAEgLjgAQABBAAAAAAAAAMKAAAYAEADADiACSAAAAAGQECFAABAADQAABABAAAAIAIwQEAACAAgBIBIgAAAAAAMAEAgYAoISAAACISAAAAAAIAAACAAAAAAAAAAAAiIAA=

> <ActivityOutcome_CPDBAS_Rat>
inactive

$$$$

  CDK     0721101958

 25 27  0  0  0  0  0  0  0  0999 V2000
    3.4518    0.0000    0.0000 C   0  0  0  0  0  4  0  0  0  0  0  0
    2.3080   -0.6740    0.0000 C   0  0  0  0  0  4  0  0  0  0  0  0
    2.3080   -2.0017    0.0000 C   0  0  0  0  0  4  0  0  0  0  0  0
    3.4518   -2.6655    0.0000 C   0  0  0  0  0  4  0  0  0  0  0  0
    4.6059   -2.0017    0.0000 C   0  0  0  0  0  4  0  0  0  0  0  0
    4.6059   -0.6740    0.0000 C   0  0  0  0  0  4  0  0  0  0  0  0
    5.7599   -2.6655    0.0000 N   0  0  0  0  0  3  0  0  0  0  0  0
    5.7599   -3.9931    0.0000 C   0  0  0  0  0  4  0  0  0  0  0  0
    4.6059   -4.6569    0.0000 N   0  0  0  0  0  3  0  0  0  0  0  0
    3.4518   -3.9931    0.0000 C   0  0  0  0  0  4  0  0  0  0  0  0
    2.3080   -4.6569    0.0000 N   0  0  0  0  0  3  0  0  0  0  0  0
    2.3080   -5.9845    0.0000 C   0  0  0  0  0  4  0  0  0  0  0  0
    1.1540   -6.6484    0.0000 C   0  0  0  0  0  4  0  0  0  0  0  0
    1.1540   -7.9862    0.0000 O   0  0  0  0  0  2  0  0  0  0  0  0
    1.1540   -3.9931    0.0000 C   0  0  0  0  0  4  0  0  0  0  0  0
    0.0000   -4.6569    0.0000 C   0  0  0  0  0  4  0  0  0  0  0  0
    0.0000   -5.9845    0.0000 O   0  0  0  0  0  2  0  0  0  0  0  0
    6.9139   -4.6569    0.0000 C   0  0  0  0  0  4  0  0  0  0  0  0
    8.1292   -4.1157    0.0000 C   0  0  0  0  0  4  0  0  0  0  0  0
    9.0177   -5.1063    0.0000 C   0  0  0  0  0  4  0  0  0  0  0  0
    8.3539   -6.2603    0.0000 C   0  0  0  0  0  4  0  0  0  0  0  0
    7.0467   -5.9845    0.0000 S   0  0  0  0  0  2  0  0  0  0  0  0
    8.8951   -7.4756    0.0000 N   0  0  0  0  0  4  0  0  0  0  0  0
   10.2125   -7.6083    0.0000 O   0  0  0  0  0  1  0  0  0  0  0  0
    8.1088   -8.5479    0.0000 O   0  0  0  0  0  2  0  0  0  0  0  0
  1  2  2  0  0  0  0 
  1  6  1  0  0  0  0 
  2  3  1  0  0  0  0 
  3  4  2  0  0  0  0 
  4  5  1  0  0  0  0 
  4 10  1  0  0  0  0 
  5  6  2  0  0  0  0 
  5  7  1  0  0  0  0 
  7  8  2  0  0  0  0 
  8  9  1  0  0  0  0 
  8 18  1  0  0  0  0 
  9 10  2  0  0  0  0 
 10 11  1  0  0  0  0 
 11 12  1  0  0  0  0 
 11 15  1  0  0  0  0 
 12 13  1  0  0  0  0 
 13 14  1  0  0  0  0 
 15 16  1  0  0  0  0 
 16 17  1  0  0  0  0 
 18 19  2  0  0  0  0 
 18 22  1  0  0  0  0 
 19 20  1  0  0  0  0 
 20 21  2  0  0  0  0 
 21 22  1  0  0  0  0 
 21 23  1  0  0  0  0 
 23 24  1  0  0  0  0 
 23 25  2  0  0  0  0 
M  CHG  1  23   1
M  CHG  1  24  -1
M  END
> <CDK Fingerprint>
IAVQQxiSKgVigFIOAAChKQAIACAAgbhBhQAAQAAUSCYQGYFiCQQAIIGMIAAAIAqIIITEAAogCoLDAYAMgI0JAGHIwEAEESQMgFkABICAoNAAAEDAgAEAHCSCMLRIUICMoEAUosQgCRDABGAiQIChQAAEEFKgASEiBIASlAaKmEI=

> <ActivityOutcome_CPDBAS_Rat>
active

> <TD50_Rat_mmol>
0.00871

$$$$

  CDK     0721101958

 22 24  0  0  0  0  0  0  0  0999 V2000
    4.4072   -6.6521    0.0000 N   0  0  0  0  0  3  0  0  0  0  0  0
    3.2600   -5.9919    0.0000 C   0  0  0  0  0  4  0  0  0  0  0  0
    3.2600   -4.6548    0.0000 N   0  0  0  0  0  3  0  0  0  0  0  0
    4.4072   -3.9946    0.0000 C   0  0  0  0  0  4  0  0  0  0  0  0
    5.5627   -4.6548    0.0000 C   0  0  0  0  0  4  0  0  0  0  0  0
    6.7182   -3.9946    0.0000 C   0  0  0  0  0  4  0  0  0  0  0  0
    7.8654   -4.6548    0.0000 C   0  0  0  0  0  4  0  0  0  0  0  0
    7.8654   -5.9919    0.0000 C   0  0  0  0  0  4  0  0  0  0  0  0
    6.7182   -6.6521    0.0000 C   0  0  0  0  0  4  0  0  0  0  0  0
    5.5627   -5.9919    0.0000 C   0  0  0  0  0  4  0  0  0  0  0  0
    4.4072   -2.6576    0.0000 N   0  0  0  0  0  3  0  0  0  0  0  0
    5.5627   -1.9973    0.0000 C   0  0  0  0  0  4  0  0  0  0  0  0
    5.5627   -0.6685    0.0000 C   0  0  0  0  0  4  0  0  0  0  0  0
    4.4072    0.0000    0.0000 O   0  0  0  0  0  2  0  0  0  0  0  0
    3.2600   -1.9973    0.0000 C   0  0  0  0  0  4  0  0  0  0  0  0
    3.2600   -0.6685    0.0000 C   0  0  0  0  0  4  0  0  0  0  0  0
    2.1046    0.0000    0.0000 O   0  0  0  0  0  2  0  0  0  0  0  0
    2.1046   -6.6521    0.0000 C   0  0  0  0  0  4  0  0  0  0  0  0
    1.9643   -7.9727    0.0000 C   0  0  0  0  0  4  0  0  0  0  0  0
    0.6685   -8.2533    0.0000 C   0  0  0  0  0  4  0  0  0  0  0  0
    0.0000   -7.0978    0.0000 C   0  0  0  0  0  4  0  0  0  0  0  0
    0.8914   -6.1157    0.0000 S   0  0  0  0  0  2  0  0  0  0  0  0
  1  2  1  0  0  0  0 
  1 10  2  0  0  0  0 
  2  3  2  0  0  0  0 
  2 18  1  0  0  0  0 
  3  4  1  0  0  0  0 
  4  5  2  0  0  0  0 
  4 11  1  0  0  0  0 
  5  6  1  0  0  0  0 
  5 10  1  0  0  0  0 
  6  7  2  0  0  0  0 
  7  8  1  0  0  0  0 
  8  9  2  0  0  0  0 
  9 10  1  0  0  0  0 
 11 12  1  0  0  0  0 
 11 15  1  0  0  0  0 
 12 13  1  0  0  0  0 
 13 14  1  0  0  0  0 
 15 16  1  0  0  0  0 
 16 17  1  0  0  0  0 
 18 19  2  0  0  0  0 
 18 22  1  0  0  0  0 
 19 20  1  0  0  0  0 
 20 21  2  0  0  0  0 
 21 22  1  0  0  0  0 
M  END
> <CDK Fingerprint>
IAUQAwiQKgVigFAOAAAhKQAAACAAAahAhQAAAAAUSCIQGYFiCAAAIIGEIAAAAAqIIISEAAggCoDDAYAMgI0IAGFAwEAEESQIgFgABICAINAAAEDAgAEADCCCMKBIUICMoEAQgkAgCBBABEACQAChQAAEEBKgASEiBIAAkAaCmEI=

> <ActivityOutcome_CPDBAS_Rat>
inactive

$$$$

  CDK     0721101958

  9  8  0  0  0  0  0  0  0  0999 V2000
    6.9090   -1.9967    0.0000 C   0  0  0  0  0  4  0  0  0  0  0  0
    5.7552   -1.3334    0.0000 C   0  0  0  0  0  4  0  0  0  0  0  0
    4.6083   -1.9967    0.0000 C   0  0  0  0  0  4  0  0  0  0  0  0
    3.4545   -1.3334    0.0000 N   0  0  0  0  0  3  0  0  0  0  0  0
    2.3007   -1.9967    0.0000 C   0  0  0  0  0  4  0  0  0  0  0  0
    1.1538   -1.3334    0.0000 C   0  0  0  0  0  4  0  0  0  0  0  0
    0.0000   -1.9967    0.0000 C   0  0  0  0  0  4  0  0  0  0  0  0
    1.1538    0.0000    0.0000 O   0  0  0  0  0  2  0  0  0  0  0  0
    5.7552    0.0000    0.0000 O   0  0  0  0  0  2  0  0  0  0  0  0
  1  2  1  0  0  0  0 
  2  3  1  0  0  0  0 
  2  9  1  0  0  0  0 
  3  4  1  0  0  0  0 
  4  5  1  0  0  0  0 
  5  6  1  0  0  0  0 
  6  7  1  0  0  0  0 
  6  8  1  0  0  0  0 
M  END
> <CDK Fingerprint>
EAAAAAAAAgAAAgABAAAAAAAAAAAAAAAAAAAAAAAAAAAAYAAEAAAAAAAAAAAACCAAEAAAAAAAAAAAAMAAAAAAAAAAAAAAAAAAAAAAAACAAAAAQCAAAAAAABAAAAAAAAAAAAAAAAAAAARAAAAAAAAAAAAAAAABAAAAAAAAAgAA

> <ActivityOutcome_CPDBAS_Rat>
inactive

$$$$

  CDK     0721101958

 17 18  0  0  0  0  0  0  0  0999 V2000
    2.8233    0.0000    0.0000 C   0  0  0  0  0  4  0  0  0  0  0  0
    3.7620   -0.9386    0.0000 C   0  0  0  0  0  4  0  0  0  0  0  0
    4.7006   -1.8773    0.0000 C   0  0  0  0  0  4  0  0  0  0  0  0
    5.9744   -1.5867    0.0000 C   0  0  0  0  0  4  0  0  0  0  0  0
    6.8907   -2.5477    0.0000 C   0  0  0  0  0  4  0  0  0  0  0  0
    6.5108   -3.8364    0.0000 C   0  0  0  0  0  4  0  0  0  0  0  0
    5.2295   -4.1419    0.0000 C   0  0  0  0  0  4  0  0  0  0  0  0
    4.3058   -3.1735    0.0000 C   0  0  0  0  0  4  0  0  0  0  0  0
    7.4494   -4.7751    0.0000 O   0  0  0  0  0  2  0  0  0  0  0  0
    2.8233   -1.8773    0.0000 C   0  0  0  0  0  4  0  0  0  0  0  0
    3.1660   -3.1660    0.0000 C   0  0  0  0  0  4  0  0  0  0  0  0
    2.2274   -4.1046    0.0000 C   0  0  0  0  0  4  0  0  0  0  0  0
    0.9386   -3.7620    0.0000 C   0  0  0  0  0  4  0  0  0  0  0  0
    0.5960   -2.4807    0.0000 C   0  0  0  0  0  4  0  0  0  0  0  0
    1.5346   -1.5346    0.0000 C   0  0  0  0  0  4  0  0  0  0  0  0
    0.0000   -4.7006    0.0000 O   0  0  0  0  0  2  0  0  0  0  0  0
    4.7006    0.0000    0.0000 C   0  0  0  0  0  4  0  0  0  0  0  0
  1  2  1  0  0  0  0 
  2  3  1  0  0  0  0 
  2 10  1  0  0  0  0 
  2 17  1  0  0  0  0 
  3  4  2  0  0  0  0 
  3  8  1  0  0  0  0 
  4  5  1  0  0  0  0 
  5  6  2  0  0  0  0 
  6  7  1  0  0  0  0 
  6  9  1  0  0  0  0 
  7  8  2  0  0  0  0 
 10 11  2  0  0  0  0 
 10 15  1  0  0  0  0 
 11 12  1  0  0  0  0 
 12 13  2  0  0  0  0 
 13 14  1  0  0  0  0 
 13 16  1  0  0  0  0 
 14 15  2  0  0  0  0 
M  END
> <CDK Fingerprint>
AgCAAAAQAQAAAAAAAAAAAAAAAAAACAACYQAAAAACAAAAAgAAACAAACAAAAAAQAEAAEAAAAAABAgAAAAAAAAAAAAAACCACBAAAAAAAAAAgAAAAACAACAAAgBAICAAAAAABkAABAAAABQAgAAAQQAAAAAAAAAA

> <ActivityOutcome_CPDBAS_Rat>
inactive

$$$$

  CDK     0721101958

 20 22  0  0  0  0  0  0  0  0999 V2000
    3.4553    0.0000    0.0000 O   0  0  0  0  0  2  0  0  0  0  0  0
    3.4553   -1.3338    0.0000 C   0  0  0  0  0  4  0  0  0  0  0  0
    4.6094   -1.9972    0.0000 C   0  0  0  0  0  4  0  0  0  0  0  0
    4.6094   -3.3240    0.0000 C   0  0  0  0  0  4  0  0  0  0  0  0
    5.7566   -3.9943    0.0000 C   0  0  0  0  0  4  0  0  0  0  0  0
    6.9106   -3.3240    0.0000 C   0  0  0  0  0  4  0  0  0  0  0  0
    6.9106   -1.9972    0.0000 C   0  0  0  0  0  4  0  0  0  0  0  0
    5.7566   -1.3338    0.0000 C   0  0  0  0  0  4  0  0  0  0  0  0
    5.7566    0.0000    0.0000 N   0  0  0  0  0  3  0  0  0  0  0  0
    5.7566   -5.3212    0.0000 N   0  0  0  0  0  3  0  0  0  0  0  0
    3.4553   -3.9943    0.0000 C   0  0  0  0  0  4  0  0  0  0  0  0
    3.4553   -5.3212    0.0000 O   0  0  0  0  0  2  0  0  0  0  0  0
    2.3012   -3.3240    0.0000 C   0  0  0  0  0  4  0  0  0  0  0  0
    1.1541   -3.9943    0.0000 C   0  0  0  0  0  4  0  0  0  0  0  0
    0.0000   -3.3240    0.0000 C   0  0  0  0  0  4  0  0  0  0  0  0
    0.0000   -1.9972    0.0000 C   0  0  0  0  0  4  0  0  0  0  0  0
    1.1541   -1.3338    0.0000 C   0  0  0  0  0  4  0  0  0  0  0  0
    2.3012   -1.9972    0.0000 C   0  0  0  0  0  4  0  0  0  0  0  0
    1.1541    0.0000    0.0000 N   0  0  0  0  0  3  0  0  0  0  0  0
    1.1541   -5.3212    0.0000 N   0  0  0  0  0  3  0  0  0  0  0  0
  1  2  2  0  0  0  0 
  2  3  1  0  0  0  0 
  2 18  1  0  0  0  0 
  3  4  2  0  0  0  0 
  3  8  1  0  0  0  0 
  4  5  1  0  0  0  0 
  4 11  1  0  0  0  0 
  5  6  2  0  0  0  0 
  5 10  1  0  0  0  0 
  6  7  1  0  0  0  0 
  7  8  2  0  0  0  0 
  8  9  1  0  0  0  0 
 11 12  2  0  0  0  0 
 11 13  1  0  0  0  0 
 13 14  2  0  0  0  0 
 13 18  1  0  0  0  0 
 14 15  1  0  0  0  0 
 14 20  1  0  0  0  0 
 15 16  2  0  0  0  0 
 16 17  1  0  0  0  0 
 17 18  2  0  0  0  0 
 17 19  1  0  0  0  0 
M  END
> <CDK Fingerprint>
AgAIACAAACIBgYAAgCABEAEAIAACAEAQAAAABA5EAlgAAGgAQBEEAAAAAQIAAQBgAAQAAAEAAEABABBAAAAAAAQIAADAAEAAAAAAQABiAAgAAADAAIAAQIAAAAAIgAAgAEgAQCAAAAAAACJAICQAAAAUIIAQCkEoAAAAAAISAA==

> <ActivityOutcome_CPDBAS_Rat>
active

> <TD50_Rat_mmol>
0.582

$$$$

  CDK     0721101958

 18 18  0  0  0  0  0  0  0  0999 V2000
    2.3034   -3.3262    0.0000 C   0  0  0  0  0  4  0  0  0  0  0  0
    2.3034   -1.9994    0.0000 C   0  0  0  0  0  4  0  0  0  0  0  0
    3.4552   -1.3360    0.0000 C   0  0  0  0  0  4  0  0  0  0  0  0
    4.6069   -1.9994    0.0000 C   0  0  0  0  0  4  0  0  0  0  0  0
    4.6069   -3.3262    0.0000 C   0  0  0  0  0  4  0  0  0  0  0  0
    3.4552   -3.9896    0.0000 C   0  0  0  0  0  4  0  0  0  0  0  0
    5.7586   -3.9896    0.0000 N   0  0  0  0  0  3  0  0  0  0  0  0
    6.9103   -3.3262    0.0000 C   0  0  0  0  0  4  0  0  0  0  0  0
    8.0620   -3.9896    0.0000 C   0  0  0  0  0  4  0  0  0  0  0  0
    9.2137   -3.3262    0.0000 O   0  0  0  0  0  2  0  0  0  0  0  0
    5.7586   -5.3255    0.0000 C   0  0  0  0  0  4  0  0  0  0  0  0
    6.9103   -5.9889    0.0000 C   0  0  0  0  0  4  0  0  0  0  0  0
    8.0620   -5.3255    0.0000 O   0  0  0  0  0  2  0  0  0  0  0  0
    1.1517   -1.3360    0.0000 N   0  0  0  0  0  3  0  0  0  0  0  0
    1.1517    0.0000    0.0000 C   0  0  0  0  0  4  0  0  0  0  0  0
    1.1517   -3.9896    0.0000 N   0  0  0  0  0  4  0  0  0  0  0  0
    0.0000   -3.3262    0.0000 O   0  0  0  0  0  1  0  0  0  0  0  0
    1.1517   -5.3255    0.0000 O   0  0  0  0  0  2  0  0  0  0  0  0
  1  2  2  0  0  0  0 
  1  6  1  0  0  0  0 
  1 16  1  0  0  0  0 
  2  3  1  0  0  0  0 
  2 14  1  0  0  0  0 
  3  4  2  0  0  0  0 
  4  5  1  0  0  0  0 
  5  6  2  0  0  0  0 
  5  7  1  0  0  0  0 
  7  8  1  0  0  0  0 
  7 11  1  0  0  0  0 
  8  9  1  0  0  0  0 
  9 10  1  0  0  0  0 
 11 12  1  0  0  0  0 
 12 13  1  0  0  0  0 
 14 15  1  0  0  0  0 
 16 17  1  0  0  0  0 
 16 18  2  0  0  0  0 
M  CHG  1  16   1
M  CHG  1  17  -1
M  END
> <CDK Fingerprint>
EAAQAwAQKgCACgAAAgQACAAAAAA4QBGAAAAABEEGAAAAYAEEAAAAAAAAIAAAiCAAJAACAIIAQgQAAIAEEABAAAAQEABAAQAAAAAQiICQAAAIQAAAIAQGABAQABAAACAAFAAAIAAAAEBgAiAAAAAAAAAEgAABEACAAAAAArCI

> <ActivityOutcome_CPDBAS_Rat>
active

> <TD50_Rat_mmol>
2.75

$$$$

  CDK     0721101958

 20 20  0  0  0  0  0  0  0  0999 V2000
    5.9907   -2.2984    0.0000 C   0  0  0  0  0  4  0  0  0  0  0  0
    6.6504   -3.4476    0.0000 C   0  0  0  0  0  4  0  0  0  0  0  0
    5.9907   -4.6074    0.0000 C   0  0  0  0  0  4  0  0  0  0  0  0
    4.6606   -4.6074    0.0000 C   0  0  0  0  0  4  0  0  0  0  0  0
    3.9903   -3.4476    0.0000 C   0  0  0  0  0  4  0  0  0  0  0  0
    4.6606   -2.2984    0.0000 C   0  0  0  0  0  4  0  0  0  0  0  0
    2.6602   -3.4476    0.0000 N   0  0  0  0  0  3  0  0  0  0  0  0
    1.9898   -4.6074    0.0000 C   0  0  0  0  0  4  0  0  0  0  0  0
    0.6597   -4.6074    0.0000 C   0  0  0  0  0  4  0  0  0  0  0  0
    0.0000   -5.7566    0.0000 O   0  0  0  0  0  2  0  0  0  0  0  0
    1.9898   -2.2984    0.0000 C   0  0  0  0  0  4  0  0  0  0  0  0
    0.6597   -2.2984    0.0000 C   0  0  0  0  0  4  0  0  0  0  0  0
    0.0000   -3.4476    0.0000 O   0  0  0  0  0  2  0  0  0  0  0  0
    7.9805   -3.4476    0.0000 N   0  0  0  0  0  3  0  0  0  0  0  0
    8.6509   -4.6074    0.0000 C   0  0  0  0  0  4  0  0  0  0  0  0
    9.9703   -4.6074    0.0000 C   0  0  0  0  0  4  0  0  0  0  0  0
   10.6407   -5.7566    0.0000 O   0  0  0  0  0  2  0  0  0  0  0  0
    6.6504   -1.1492    0.0000 N   0  0  0  0  0  4  0  0  0  0  0  0
    5.9907    0.0000    0.0000 O   0  0  0  0  0  1  0  0  0  0  0  0
    7.9805   -1.1492    0.0000 O   0  0  0  0  0  2  0  0  0  0  0  0
  1  2  2  0  0  0  0 
  1  6  1  0  0  0  0 
  1 18  1  0  0  0  0 
  2  3  1  0  0  0  0 
  2 14  1  0  0  0  0 
  3  4  2  0  0  0  0 
  4  5  1  0  0  0  0 
  5  6  2  0  0  0  0 
  5  7  1  0  0  0  0 
  7  8  1  0  0  0  0 
  7 11  1  0  0  0  0 
  8  9  1  0  0  0  0 
  9 10  1  0  0  0  0 
 11 12  1  0  0  0  0 
 12 13  1  0  0  0  0 
 14 15  1  0  0  0  0 
 15 16  1  0  0  0  0 
 16 17  1  0  0  0  0 
 18 19  1  0  0  0  0 
 18 20  2  0  0  0  0 
M  CHG  1  18   1
M  CHG  1  19  -1
M  END
> <CDK Fingerprint>
EAAQAwAQKgCACgAAAgQACAAAAAA4QBGAAAIABEEGAAAAYAEEAAAAAAAAIAAAiCAAJAACAIIAQgQAAMAEEABAAAAQEABAAQAAAAAQiICQAAAIQAAAIAQGABBUABAAACAAFAAAIAAAAEBgAiAAAAAAAAAEgAABEACAQAAAArCI

> <ActivityOutcome_CPDBAS_Rat>
inactive

$$$$

  CDK     0721101958

  4  3  0  0  0  0  0  0  0  0999 V2000
    1.9950    0.0000    0.0000 Cl  0  0  0  0  0  1  0  0  0  0  0  0
    1.3292   -1.1518    0.0000 C   0  0  0  0  0  4  0  0  0  0  0  0
    1.9950   -2.3037    0.0000 Cl  0  0  0  0  0  1  0  0  0  0  0  0
    0.0000   -1.1518    0.0000 Br  0  0  0  0  0  1  0  0  0  0  0  0
  1  2  1  0  0  0  0 
  2  3  1  0  0  0  0 
  2  4  1  0  0  0  0 
M  END
> <CDK Fingerprint>
AQAAAADAAAAAAAAAAAAAAAAAAAAAAAQAAAAAAAAAAAAAAQAAAAAAAAAAAAAAAAEAAAAAAAAAAAAAAAAAAAAAAAAAAAAAAAAAAAAAAAAAAAAAAAAAAAAAAAAAAAAAAAAAAAA=

> <ActivityOutcome_CPDBAS_Rat>
active

> <TD50_Rat_mmol>
0.443

$$$$

  CDK     0721101958

  3  2  0  0  0  0  0  0  0  0999 V2000
    2.3030   -0.6656    0.0000 C   0  0  0  0  0  4  0  0  0  0  0  0
    1.1515    0.0000    0.0000 C   0  0  0  0  0  4  0  0  0  0  0  0
    0.0000   -0.6656    0.0000 Br  0  0  0  0  0  1  0  0  0  0  0  0
  1  2  1  0  0  0  0 
  2  3  1  0  0  0  0 
M  END
> <CDK Fingerprint>
AIAAAADAAAAAAAAAAAAAAAAAIAAAAAAAAAAAAAAAAAAAAAAAAAAAAAAAAAAAAAEAAAAAAAAAAAAAAAAAAAAAAAAAAAAAAAAAAAAAAAAAAAAAAAAAAAAAAAAAAAAAAAAAAAA=

> <ActivityOutcome_CPDBAS_Rat>
active

> <TD50_Rat_mmol>
1.37

$$$$

  CDK     0721101958

 31 35  0  0  0  0  0  0  0  0999 V2000
    8.4349   -3.4385    0.0000 C   0  0  0  0  0  4  0  0  0  0  0  0
    7.1156   -3.8596    0.0000 C   0  0  0  0  0  4  0  0  0  0  0  0
    9.2349   -4.4911    0.0000 C   0  0  0  0  0  4  0  0  0  0  0  0
    9.2349   -2.3859    0.0000 O   0  0  0  0  0  2  0  0  0  0  0  0
    8.0560   -2.1894    0.0000 C   0  0  0  0  0  4  0  0  0  0  0  0
    7.1156   -5.1367    0.0000 C   0  0  0  0  0  4  0  0  0  0  0  0
    5.9508   -3.2140    0.0000 C   0  0  0  0  0  4  0  0  0  0  0  0
    7.1718   -2.8491    0.0000 C   0  0  0  0  0  4  0  0  0  0  0  0
    8.4349   -5.5437    0.0000 C   0  0  0  0  0  4  0  0  0  0  0  0
   10.5401   -4.0841    0.0000 O   0  0  0  0  0  2  0  0  0  0  0  0
   10.5401   -2.7929    0.0000 C   0  0  0  0  0  4  0  0  0  0  0  0
    9.0103   -1.2351    0.0000 C   0  0  0  0  0  4  0  0  0  0  0  0
    6.7507   -1.8666    0.0000 O   0  0  0  0  0  2  0  0  0  0  0  0
    5.9508   -5.8104    0.0000 C   0  0  0  0  0  4  0  0  0  0  0  0
    4.7438   -3.8596    0.0000 C   0  0  0  0  0  4  0  0  0  0  0  0
   11.6489   -2.0210    0.0000 C   0  0  0  0  0  4  0  0  0  0  0  0
    8.6314    0.0000    0.0000 O   0  0  0  0  0  2  0  0  0  0  0  0
    4.7438   -5.1367    0.0000 C   0  0  0  0  0  4  0  0  0  0  0  0
    5.9508   -7.1016    0.0000 C   0  0  0  0  0  4  0  0  0  0  0  0
    3.5648   -3.2140    0.0000 O   0  0  0  0  0  2  0  0  0  0  0  0
   12.9120   -2.5543    0.0000 C   0  0  0  0  0  4  0  0  0  0  0  0
    3.5648   -5.8104    0.0000 C   0  0  0  0  0  4  0  0  0  0  0  0
    4.7438   -7.7612    0.0000 C   0  0  0  0  0  4  0  0  0  0  0  0
   14.0348   -1.7824    0.0000 C   0  0  0  0  0  4  0  0  0  0  0  0
    3.5648   -7.1016    0.0000 C   0  0  0  0  0  4  0  0  0  0  0  0
    2.3719   -5.1367    0.0000 C   0  0  0  0  0  4  0  0  0  0  0  0
    3.5648   -4.4911    0.0000 C   0  0  0  0  0  4  0  0  0  0  0  0
    2.3719   -7.7612    0.0000 C   0  0  0  0  0  4  0  0  0  0  0  0
    1.1789   -5.8104    0.0000 C   0  0  0  0  0  4  0  0  0  0  0  0
    1.1789   -7.1016    0.0000 C   0  0  0  0  0  4  0  0  0  0  0  0
    0.0000   -7.7612    0.0000 O   0  0  0  0  0  2  0  0  0  0  0  0
  1  2  1  0  0  0  0 
  1  3  1  0  0  0  0 
  1  4  1  6  0  0  0 
  1  5  1  1  0  0  0 
  2  6  1  0  0  0  0 
  2  7  1  0  0  0  0 
  2  8  1  1  0  0  0 
  3  9  1  0  0  0  0 
  3 10  1  6  0  0  0 
  4 11  1  0  0  0  0 
  5 12  1  0  0  0  0 
  5 13  2  0  0  0  0 
  6 14  1  0  0  0  0 
  6  9  1  0  0  0  0 
  7 15  1  0  0  0  0 
 10 11  1  0  0  0  0 
 11 16  1  6  0  0  0 
 12 17  1  0  0  0  0 
 14 18  1  0  0  0  0 
 14 19  1  0  0  0  0 
 15 20  1  1  0  0  0 
 15 18  1  0  0  0  0 
 16 21  1  0  0  0  0 
 18 22  1  0  0  0  0 
 19 23  1  0  0  0  0 
 21 24  1  0  0  0  0 
 22 25  1  0  0  0  0 
 22 26  1  0  0  0  0 
 22 27  1  1  0  0  0 
 23 25  1  0  0  0  0 
 25 28  2  0  0  0  0 
 26 29  2  0  0  0  0 
 28 30  1  0  0  0  0 
 29 30  1  0  0  0  0 
 30 31  2  0  0  0  0 
M  END
> <CDK Fingerprint>
AMAAIgABAAEQIJQDFQQEABAkAAqABEEAwAAAAEABAACRUQjgQIACAAAAAQEhEAEYJCJiAADIGABAABAiRGAEgAACAEEEQgHAAAUUAERAEQAAAAAIQCAEQARBEQAAAEIAAQBIQAAAQAEgAAAAoBAEAZAAAAgAsDggAAABRFYhACA=

> <ActivityOutcome_CPDBAS_Rat>
active

> <TD50_Rat_mmol>
0.000676

$$$$

  CDK     0721101958

  4  3  0  0  0  0  0  0  0  0999 V2000
    0.0000    0.0000    0.0000 C   0  0  0  0  0  4  0  0  0  0  0  0
    1.1513   -0.6638    0.0000 C   0  0  0  0  0  4  0  0  0  0  0  0
    2.3061    0.0000    0.0000 C   0  0  0  0  0  4  0  0  0  0  0  0
    3.4575   -0.6638    0.0000 C   0  0  0  0  0  4  0  0  0  0  0  0
  1  2  2  0  0  0  0 
  2  3  1  0  0  0  0 
  3  4  2  0  0  0  0 
M  END
> <CDK Fingerprint>
QAAAAAAAAAAAAAAAAAAAAAAAAAAAAAAAAAAEAAAAAAAAAEAAAAAAAAAAAAAAAAAgAAAAAAAQAAAAAAAAAAAAAAAAAAAAAAAAAAAAAAAAAAAAAAAAAAAAAAAAAAAAAAAAAAAAAAAAAAAAAAAAAAAAAAAAAAAAAAAAAAAAAAAAAA==

> <ActivityOutcome_CPDBAS_Rat>
active

> <TD50_Rat_mmol>
4.83

$$$$

  CDK     0721101958

  8  7  0  0  0  0  0  0  0  0999 V2000
    0.0000    0.0000    0.0000 O   0  0  0  0  0  2  0  0  0  0  0  0
    3.4639   -0.6621    0.0000 O   0  0  0  0  0  2  0  0  0  0  0  0
    1.1546   -0.6621    0.0000 C   0  0  0  0  0  4  0  0  0  0  0  0
    2.3092    0.0000    0.0000 C   0  0  0  0  0  4  0  0  0  0  0  0
    4.5943    0.0000    0.0000 C   0  0  0  0  0  4  0  0  0  0  0  0
    5.7650   -0.6621    0.0000 C   0  0  0  0  0  4  0  0  0  0  0  0
    6.9035    0.0000    0.0000 C   0  0  0  0  0  4  0  0  0  0  0  0
    8.0743   -0.6621    0.0000 C   0  0  0  0  0  4  0  0  0  0  0  0
  1  3  1  0  0  0  0 
  2  4  1  0  0  0  0 
  2  5  1  0  0  0  0 
  3  4  1  0  0  0  0 
  5  6  1  0  0  0  0 
  6  7  1  0  0  0  0 
  7  8  1  0  0  0  0 
M  END
> <CDK Fingerprint>
AIAAAAAAAAAAAAACAAAAABAAAAAAAAEAgAAAAAAAAAAAAABgQIAAAAAAAAAAAAAYIAIAAAAAAAAAAAAAQAAAAAAAAAAAAAAAAAAAAEAAAAAAAAAAACAAQAAAEAAAAEAAAAAAAAAAAAAAAAAAABAAAAAAAAAAABAAAAAAAAAAAAA=

> <ActivityOutcome_CPDBAS_Rat>
inactive

$$$$

  CDK     0721101958

  5  4  0  0  0  0  0  0  0  0999 V2000
    1.3300   -1.3300    0.0000 C   0  0  0  0  0  4  0  0  0  0  0  0
    1.3300   -2.6600    0.0000 C   0  0  0  0  0  4  0  0  0  0  0  0
    0.0000   -1.3300    0.0000 C   0  0  0  0  0  4  0  0  0  0  0  0
    1.3300    0.0000    0.0000 C   0  0  0  0  0  4  0  0  0  0  0  0
    2.6600   -1.3300    0.0000 O   0  0  0  0  0  2  0  0  0  0  0  0
  1  2  1  0  0  0  0 
  1  3  1  0  0  0  0 
  1  4  1  0  0  0  0 
  1  5  1  0  0  0  0 
M  END
> <CDK Fingerprint>
AgAAAAAAAAAAAAAAAAAAAAAAAAAAAAAAYAAAAAAAAAAAAAAAACAAAAAAAAAAAAAAAEAAAAAAAAAAAAAAAAAAAAAAAAAAAAAAAAAAAAAAABAAAAAAAAAAAAAAAAAAAAAAAAAAAAAAAAAAAAAAAAAAAAAAAAAA

> <ActivityOutcome_CPDBAS_Rat>
active

> <TD50_Rat_mmol>
0.872

$$$$

  CDK     0721101958

 23 24  0  0  0  0  0  0  0  0999 V2000
    5.3142   -2.2980    0.0000 C   0  0  0  0  0  4  0  0  0  0  0  0
    3.9856   -2.2980    0.0000 C   0  0  0  0  0  4  0  0  0  0  0  0
    3.3273   -1.1490    0.0000 C   0  0  0  0  0  4  0  0  0  0  0  0
    3.9856    0.0000    0.0000 C   0  0  0  0  0  4  0  0  0  0  0  0
    5.3142    0.0000    0.0000 C   0  0  0  0  0  4  0  0  0  0  0  0
    5.9844   -1.1490    0.0000 C   0  0  0  0  0  4  0  0  0  0  0  0
    3.3273   -3.4470    0.0000 C   0  0  0  0  0  4  0  0  0  0  0  0
    3.9856   -4.6080    0.0000 O   0  0  0  0  0  2  0  0  0  0  0  0
    3.3273   -5.7570    0.0000 C   0  0  0  0  0  4  0  0  0  0  0  0
    1.9988   -5.7570    0.0000 C   0  0  0  0  0  4  0  0  0  0  0  0
    1.3285   -6.9060    0.0000 C   0  0  0  0  0  4  0  0  0  0  0  0
    0.0000   -6.9060    0.0000 C   0  0  0  0  0  4  0  0  0  0  0  0
    1.9988   -3.4470    0.0000 O   0  0  0  0  0  2  0  0  0  0  0  0
    5.9844   -3.4470    0.0000 C   0  0  0  0  0  4  0  0  0  0  0  0
    7.3130   -3.4470    0.0000 O   0  0  0  0  0  2  0  0  0  0  0  0
    7.9832   -4.6080    0.0000 C   0  0  0  0  0  4  0  0  0  0  0  0
    9.3118   -4.6080    0.0000 C   0  0  0  0  0  4  0  0  0  0  0  0
    9.9701   -3.4470    0.0000 C   0  0  0  0  0  4  0  0  0  0  0  0
   11.2986   -3.4470    0.0000 C   0  0  0  0  0  4  0  0  0  0  0  0
   11.9689   -4.6080    0.0000 C   0  0  0  0  0  4  0  0  0  0  0  0
   11.2986   -5.7570    0.0000 C   0  0  0  0  0  4  0  0  0  0  0  0
    9.9701   -5.7570    0.0000 C   0  0  0  0  0  4  0  0  0  0  0  0
    5.3142   -4.6080    0.0000 O   0  0  0  0  0  2  0  0  0  0  0  0
  1  2  2  0  0  0  0 
  1  6  1  0  0  0  0 
  1 14  1  0  0  0  0 
  2  3  1  0  0  0  0 
  2  7  1  0  0  0  0 
  3  4  2  0  0  0  0 
  4  5  1  0  0  0  0 
  5  6  2  0  0  0  0 
  7  8  1  0  0  0  0 
  7 13  2  0  0  0  0 
  8  9  1  0  0  0  0 
  9 10  1  0  0  0  0 
 10 11  1  0  0  0  0 
 11 12  1  0  0  0  0 
 14 15  1  0  0  0  0 
 14 23  2  0  0  0  0 
 15 16  1  0  0  0  0 
 16 17  1  0  0  0  0 
 17 18  2  0  0  0  0 
 17 22  1  0  0  0  0 
 18 19  1  0  0  0  0 
 19 20  2  0  0  0  0 
 20 21  1  0  0  0  0 
 21 22  2  0  0  0  0 
M  END
> <CDK Fingerprint>
AoCIgEAAAAAAAoACAAAAABABAACAAAAAgAAAAIAAAAAQAABoAIAABAgACAIAgBBQIAIgAAAAgCBAAAAQQAAAAAAMAAABAAAAAAAAAEIAAAAQAgAAIACAQACAEEAAKICAIIBAQUAgBAAAEAACQRgECACAEAygUBhASBEAcQAAIAA=

> <ActivityOutcome_CPDBAS_Rat>
active

> <TD50_Rat_mmol>
3.33

$$$$

  CDK     0721101958

  5  4  0  0  0  0  0  0  0  0999 V2000
    0.0000   -0.6638    0.0000 C   0  0  0  0  0  4  0  0  0  0  0  0
    1.1525    0.0000    0.0000 C   0  0  0  0  0  4  0  0  0  0  0  0
    2.3050   -0.6638    0.0000 C   0  0  0  0  0  4  0  0  0  0  0  0
    3.4575    0.0000    0.0000 C   0  0  0  0  0  4  0  0  0  0  0  0
    4.6099   -0.6638    0.0000 Cl  0  0  0  0  0  1  0  0  0  0  0  0
  1  2  1  0  0  0  0 
  2  3  1  0  0  0  0 
  3  4  1  0  0  0  0 
  4  5  1  0  0  0  0 
M  END
> <CDK Fingerprint>
AMAAAAAAAAAAAAAAAAAgAAAAAgAAAAAAAABAAAABAAAAAAAAgABAAAAAAAAAAAAAAAAAAAAAAAAAAAAAAAAAAAAAAAAAAAAAAAAAEAAAAAAAAAAAAAAAAAAAAAAAAA==

> <ActivityOutcome_CPDBAS_Rat>
inactive

$$$$

  CDK     0721101958

 12 11  0  0  0  0  0  0  0  0999 V2000
    1.9982   -5.7596    0.0000 N   0  0  0  0  0  3  0  0  0  0  0  0
    2.6620   -4.6118    0.0000 C   0  0  0  0  0  4  0  0  0  0  0  0
    1.9982   -3.4571    0.0000 C   0  0  0  0  0  4  0  0  0  0  0  0
    2.6620   -2.3025    0.0000 C   0  0  0  0  0  4  0  0  0  0  0  0
    1.9982   -1.1547    0.0000 C   0  0  0  0  0  4  0  0  0  0  0  0
    2.6620    0.0000    0.0000 O   0  0  0  0  0  2  0  0  0  0  0  0
    2.6620   -6.9143    0.0000 C   0  0  0  0  0  4  0  0  0  0  0  0
    3.9895   -6.9143    0.0000 C   0  0  0  0  0  4  0  0  0  0  0  0
    4.6602   -5.7596    0.0000 C   0  0  0  0  0  4  0  0  0  0  0  0
    5.9878   -5.7596    0.0000 C   0  0  0  0  0  4  0  0  0  0  0  0
    0.6638   -5.7596    0.0000 N   0  0  0  0  0  3  0  0  0  0  0  0
    0.0000   -4.6118    0.0000 O   0  0  0  0  0  2  0  0  0  0  0  0
  1  2  1  0  0  0  0 
  1  7  1  0  0  0  0 
  1 11  1  0  0  0  0 
  2  3  1  0  0  0  0 
  3  4  1  0  0  0  0 
  4  5  1  0  0  0  0 
  5  6  1  0  0  0  0 
  7  8  1  0  0  0  0 
  8  9  1  0  0  0  0 
  9 10  1  0  0  0  0 
 11 12  2  0  0  0  0 
M  END
> <CDK Fingerprint>
EAAAAAAAAgAAAgABgAABAAAAABAAAAAAAAAAAAAEAQABYAAEAAAAAIQACAAAECAAEwAAAAAAAABAAMAEAAAAAAAAAAAAQAAAAAAAAACAAAAAACAAQAAAABAAAAAAAAAABCAAAAAIAAAIAAAQAAAAAAAAAAAQAAAAAAAAAwgA

> <ActivityOutcome_CPDBAS_Rat>
active

> <TD50_Rat_mmol>
0.00262

$$$$

  CDK     0721101958

 17 17  0  0  0  0  0  0  0  0999 V2000
    3.9901   -1.1505    0.0000 O   0  0  0  0  0  2  0  0  0  0  0  0
    3.3250   -2.3009    0.0000 C   0  0  0  0  0  4  0  0  0  0  0  0
    3.9901   -3.4580    0.0000 C   0  0  0  0  0  4  0  0  0  0  0  0
    3.3250   -4.6085    0.0000 C   0  0  0  0  0  4  0  0  0  0  0  0
    1.9950   -4.6085    0.0000 C   0  0  0  0  0  4  0  0  0  0  0  0
    1.3300   -3.4580    0.0000 C   0  0  0  0  0  4  0  0  0  0  0  0
    1.9950   -2.3009    0.0000 C   0  0  0  0  0  4  0  0  0  0  0  0
    1.3300   -1.1505    0.0000 C   0  0  0  0  0  4  0  0  0  0  0  0
    0.6650    0.0000    0.0000 C   0  0  0  0  0  4  0  0  0  0  0  0
    2.4805   -0.4855    0.0000 C   0  0  0  0  0  4  0  0  0  0  0  0
    0.1796   -1.8155    0.0000 C   0  0  0  0  0  4  0  0  0  0  0  0
    1.3300   -5.7590    0.0000 C   0  0  0  0  0  4  0  0  0  0  0  0
    0.0000   -5.7590    0.0000 O   0  0  0  0  0  2  0  0  0  0  0  0
    5.3201   -3.4580    0.0000 C   0  0  0  0  0  4  0  0  0  0  0  0
    5.3201   -2.1280    0.0000 C   0  0  0  0  0  4  0  0  0  0  0  0
    6.6501   -3.4580    0.0000 C   0  0  0  0  0  4  0  0  0  0  0  0
    5.3201   -4.7881    0.0000 C   0  0  0  0  0  4  0  0  0  0  0  0
  1  2  1  0  0  0  0 
  2  3  2  0  0  0  0 
  2  7  1  0  0  0  0 
  3  4  1  0  0  0  0 
  3 14  1  0  0  0  0 
  4  5  2  0  0  0  0 
  5  6  1  0  0  0  0 
  5 12  1  0  0  0  0 
  6  7  2  0  0  0  0 
  7  8  1  0  0  0  0 
  8  9  1  0  0  0  0 
  8 10  1  0  0  0  0 
  8 11  1  0  0  0  0 
 12 13  1  0  0  0  0 
 14 15  1  0  0  0  0 
 14 16  1  0  0  0  0 
 14 17  1  0  0  0  0 
M  END
> <CDK Fingerprint>
QAAAAAAAAAIAAAAAAAAAAAAAABAAAAAAAAAAAAgAAmEAAAAAAAAAAEAAAAAwAAAgAAAAIEAAAABAAAAAAAYIAAAAAAEAAAAAAAAAgAAQAAAAAAAAAIAQQAAAgAAgAAgAQCAkAAAAAEZAAAQIIIGUAIIAAAAAAQAEAAAAAA==

> <ActivityOutcome_CPDBAS_Rat>
inactive

$$$$

  CDK     0721101958

 12 12  0  0  0  0  0  0  0  0999 V2000
    1.8146   -3.8135    0.0000 C   0  0  0  0  0  4  0  0  0  0  0  0
    1.1521   -2.6614    0.0000 C   0  0  0  0  0  4  0  0  0  0  0  0
    2.3042   -1.9989    0.0000 C   0  0  0  0  0  4  0  0  0  0  0  0
    2.3042   -0.6682    0.0000 C   0  0  0  0  0  4  0  0  0  0  0  0
    3.4563    0.0000    0.0000 C   0  0  0  0  0  4  0  0  0  0  0  0
    4.6085   -0.6682    0.0000 C   0  0  0  0  0  4  0  0  0  0  0  0
    4.6085   -1.9989    0.0000 C   0  0  0  0  0  4  0  0  0  0  0  0
    3.4563   -2.6614    0.0000 C   0  0  0  0  0  4  0  0  0  0  0  0
    5.7606   -2.6614    0.0000 C   0  0  0  0  0  4  0  0  0  0  0  0
    1.1521    0.0000    0.0000 O   0  0  0  0  0  2  0  0  0  0  0  0
    0.0000   -3.3239    0.0000 C   0  0  0  0  0  4  0  0  0  0  0  0
    0.4896   -1.5093    0.0000 C   0  0  0  0  0  4  0  0  0  0  0  0
  1  2  1  0  0  0  0 
  2  3  1  0  0  0  0 
  2 11  1  0  0  0  0 
  2 12  1  0  0  0  0 
  3  4  2  0  0  0  0 
  3  8  1  0  0  0  0 
  4  5  1  0  0  0  0 
  4 10  1  0  0  0  0 
  5  6  2  0  0  0  0 
  6  7  1  0  0  0  0 
  7  8  2  0  0  0  0 
  7  9  1  0  0  0  0 
M  END
> <CDK Fingerprint>
AgAAAAAAAAAAAAAAAAAAAAAAAAAACAACYQAAAAAAAAAAQAAAADAAACAAAAAAQAAAAEAAAAAABggAAAAAAQAAAAAAAACAABAAAAAAAAAAgAAAAACAACAAAABAICAAAAAABkAABAAgABQAggAAAAAAAAQAAAAA

> <ActivityOutcome_CPDBAS_Rat>
inactive

$$$$

  CDK     0721101958

 13 12  0  0  0  0  0  0  0  0999 V2000
    3.9899   -3.4516    0.0000 N   0  0  0  0  0  3  0  0  0  0  0  0
    2.6560   -3.4516    0.0000 C   0  0  0  0  0  4  0  0  0  0  0  0
    1.9920   -4.6061    0.0000 N   0  0  0  0  0  3  0  0  0  0  0  0
    2.6560   -5.7546    0.0000 C   0  0  0  0  0  4  0  0  0  0  0  0
    3.9899   -5.7546    0.0000 C   0  0  0  0  0  4  0  0  0  0  0  0
    4.6539   -4.6061    0.0000 C   0  0  0  0  0  4  0  0  0  0  0  0
    5.9819   -4.6061    0.0000 C   0  0  0  0  0  4  0  0  0  0  0  0
    0.6640   -4.6061    0.0000 N   0  0  0  0  0  3  0  0  0  0  0  0
    0.0000   -3.4516    0.0000 O   0  0  0  0  0  2  0  0  0  0  0  0
    1.9920   -2.3030    0.0000 N   0  0  0  0  0  3  0  0  0  0  0  0
    2.6560   -1.1485    0.0000 N   0  0  0  0  0  4  0  0  0  0  0  0
    1.9920    0.0000    0.0000 O   0  0  0  0  0  2  0  0  0  0  0  0
    3.9899   -1.1485    0.0000 O   0  0  0  0  0  1  0  0  0  0  0  0
  1  2  2  0  0  0  0 
  2  3  1  0  0  0  0 
  2 10  1  0  0  0  0 
  3  4  1  0  0  0  0 
  3  8  1  0  0  0  0 
  4  5  1  0  0  0  0 
  5  6  1  0  0  0  0 
  6  7  1  0  0  0  0 
  8  9  2  0  0  0  0 
 10 11  1  0  0  0  0 
 11 12  2  0  0  0  0 
 11 13  1  0  0  0  0 
M  CHG  1  11   1
M  CHG  1  13  -1
M  END
> <CDK Fingerprint>
CABAAGIQAEgAAYAAAQABAACQAAAAgAAAAAAABAUgIGAAAAOACAAAAAAAgBBiAEFABkAAAAAAAADAAAAAAAAAAAEAAEAAAAAAAAAAgAAIBAAgAEAAAAAAIgAAAAAAABQgAAAACAAAAAAAEAAAIAAAAAAAgAAAABAAAAMAAA==

> <ActivityOutcome_CPDBAS_Rat>
inactive

$$$$

  CDK     0721101958

 10  9  0  0  0  0  0  0  0  0999 V2000
    4.6062   -2.6601    0.0000 O   0  0  0  0  0  2  0  0  0  0  0  0
    3.4546   -1.9979    0.0000 C   0  0  0  0  0  4  0  0  0  0  0  0
    3.4546   -0.6679    0.0000 N   0  0  0  0  0  3  0  0  0  0  0  0
    2.3031    0.0000    0.0000 C   0  0  0  0  0  4  0  0  0  0  0  0
    1.1515   -0.6679    0.0000 C   0  0  0  0  0  4  0  0  0  0  0  0
    1.1515   -1.9979    0.0000 C   0  0  0  0  0  4  0  0  0  0  0  0
    0.0000   -2.6601    0.0000 C   0  0  0  0  0  4  0  0  0  0  0  0
    4.6062    0.0000    0.0000 N   0  0  0  0  0  3  0  0  0  0  0  0
    5.7577   -0.6679    0.0000 O   0  0  0  0  0  2  0  0  0  0  0  0
    2.3031   -2.6601    0.0000 N   0  0  0  0  0  3  0  0  0  0  0  0
  1  2  2  0  0  0  0 
  2  3  1  0  0  0  0 
  2 10  1  0  0  0  0 
  3  4  1  0  0  0  0 
  3  8  1  0  0  0  0 
  4  5  1  0  0  0  0 
  5  6  1  0  0  0  0 
  6  7  1  0  0  0  0 
  8  9  2  0  0  0  0 
M  END
> <CDK Fingerprint>
AhAASAABgAABAAAAABAAAAAAAAAAAAAEBQAAYAAAAoAAAAAAAAABECAAQQACAAAAAAAAAMAAAAKAAAAAAAAAQAAAAAAAAACAAABAACAAQAAAAAAAAAAAAAAARCAAAAAIAAAAAAAQAAAgAAAAAEAAAAAAAAAAAwAA

> <ActivityOutcome_CPDBAS_Rat>
active

> <TD50_Rat_mmol>
0.00356

$$$$

  CDK     0721101958

 16 16  0  0  0  0  0  0  0  0999 V2000
    3.8114   -1.1518    0.0000 O   0  0  0  0  0  2  0  0  0  0  0  0
    3.1449   -2.3037    0.0000 C   0  0  0  0  0  4  0  0  0  0  0  0
    3.8114   -3.4555    0.0000 C   0  0  0  0  0  4  0  0  0  0  0  0
    3.1449   -4.6073    0.0000 C   0  0  0  0  0  4  0  0  0  0  0  0
    1.8183   -4.6073    0.0000 C   0  0  0  0  0  4  0  0  0  0  0  0
    1.1518   -3.4555    0.0000 C   0  0  0  0  0  4  0  0  0  0  0  0
    1.8183   -2.3037    0.0000 C   0  0  0  0  0  4  0  0  0  0  0  0
    1.1518   -1.1518    0.0000 C   0  0  0  0  0  4  0  0  0  0  0  0
    0.4853    0.0000    0.0000 C   0  0  0  0  0  4  0  0  0  0  0  0
    2.3037   -0.4853    0.0000 C   0  0  0  0  0  4  0  0  0  0  0  0
    0.0000   -1.8183    0.0000 C   0  0  0  0  0  4  0  0  0  0  0  0
    1.1518   -5.7592    0.0000 C   0  0  0  0  0  4  0  0  0  0  0  0
    5.1380   -3.4555    0.0000 C   0  0  0  0  0  4  0  0  0  0  0  0
    5.1380   -2.1290    0.0000 C   0  0  0  0  0  4  0  0  0  0  0  0
    6.4710   -3.4555    0.0000 C   0  0  0  0  0  4  0  0  0  0  0  0
    5.1380   -4.7885    0.0000 C   0  0  0  0  0  4  0  0  0  0  0  0
  1  2  1  0  0  0  0 
  2  3  2  0  0  0  0 
  2  7  1  0  0  0  0 
  3  4  1  0  0  0  0 
  3 13  1  0  0  0  0 
  4  5  2  0  0  0  0 
  5  6  1  0  0  0  0 
  5 12  1  0  0  0  0 
  6  7  2  0  0  0  0 
  7  8  1  0  0  0  0 
  8  9  1  0  0  0  0 
  8 10  1  0  0  0  0 
  8 11  1  0  0  0  0 
 13 14  1  0  0  0  0 
 13 15  1  0  0  0  0 
 13 16  1  0  0  0  0 
M  END
> <CDK Fingerprint>
AgAAAAAAAAAAAAAAAAAAAAAAAAAACAACYQAAAAAAAAAAQAAAADAAACAAAAAAQAAAAEAAAAAABggAAAAAAQAAAAAAAACAABAAAAAAAAAAgABAAACAACAAAABAICAAAAAABkAABAAgARQAggAAAAAAAAQAAAAA

> <ActivityOutcome_CPDBAS_Rat>
inactive

$$$$

  CDK     0721101958

 19 19  0  0  0  0  0  0  0  0999 V2000
    2.6612   -5.7579    0.0000 O   0  0  0  0  0  2  0  0  0  0  0  0
    3.3248   -4.6105    0.0000 C   0  0  0  0  0  4  0  0  0  0  0  0
    2.6612   -3.4561    0.0000 C   0  0  0  0  0  4  0  0  0  0  0  0
    3.3248   -2.3018    0.0000 C   0  0  0  0  0  4  0  0  0  0  0  0
    4.6589   -2.3018    0.0000 C   0  0  0  0  0  4  0  0  0  0  0  0
    5.3225   -3.4561    0.0000 C   0  0  0  0  0  4  0  0  0  0  0  0
    4.6589   -4.6105    0.0000 C   0  0  0  0  0  4  0  0  0  0  0  0
    5.3225   -5.7579    0.0000 C   0  0  0  0  0  4  0  0  0  0  0  0
    5.9860   -6.9123    0.0000 C   0  0  0  0  0  4  0  0  0  0  0  0
    4.1681   -6.4284    0.0000 C   0  0  0  0  0  4  0  0  0  0  0  0
    6.4699   -5.0943    0.0000 C   0  0  0  0  0  4  0  0  0  0  0  0
    5.3225   -1.1544    0.0000 C   0  0  0  0  0  4  0  0  0  0  0  0
    6.4699   -1.8179    0.0000 C   0  0  0  0  0  4  0  0  0  0  0  0
    4.1681   -0.4839    0.0000 C   0  0  0  0  0  4  0  0  0  0  0  0
    5.9860    0.0000    0.0000 C   0  0  0  0  0  4  0  0  0  0  0  0
    1.3272   -3.4561    0.0000 C   0  0  0  0  0  4  0  0  0  0  0  0
    1.3272   -4.7833    0.0000 C   0  0  0  0  0  4  0  0  0  0  0  0
    0.0000   -3.4561    0.0000 C   0  0  0  0  0  4  0  0  0  0  0  0
    1.3272   -2.1290    0.0000 C   0  0  0  0  0  4  0  0  0  0  0  0
  1  2  1  0  0  0  0 
  2  3  2  0  0  0  0 
  2  7  1  0  0  0  0 
  3  4  1  0  0  0  0 
  3 16  1  0  0  0  0 
  4  5  2  0  0  0  0 
  5  6  1  0  0  0  0 
  5 12  1  0  0  0  0 
  6  7  2  0  0  0  0 
  7  8  1  0  0  0  0 
  8  9  1  0  0  0  0 
  8 10  1  0  0  0  0 
  8 11  1  0  0  0  0 
 12 13  1  0  0  0  0 
 12 14  1  0  0  0  0 
 12 15  1  0  0  0  0 
 16 17  1  0  0  0  0 
 16 18  1  0  0  0  0 
 16 19  1  0  0  0  0 
M  END
> <CDK Fingerprint>
AgAAAAAAAAAAAAAAAAAAAAAAAAAACAACYQAAAAAAAAAAQAAAADAAACAAAAAAQAAAAEAAAAAABggAAAAAAQAAAAAAAACAABAAAAAAAAAAgABAAACAACAAAgBAICAAAAAABkAABAAgARQAggAAAAAAAAQAAAAA

> <ActivityOutcome_CPDBAS_Rat>
inactive

$$$$

  CDK     0721101958

 11 11  0  0  0  0  0  0  0  0999 V2000
    5.3217   -1.3304    0.0000 C   0  0  0  0  0  4  0  0  0  0  0  0
    3.9913   -1.3304    0.0000 C   0  0  0  0  0  4  0  0  0  0  0  0
    3.3261   -2.4813    0.0000 C   0  0  0  0  0  4  0  0  0  0  0  0
    1.9956   -2.4813    0.0000 C   0  0  0  0  0  4  0  0  0  0  0  0
    1.3304   -1.3304    0.0000 C   0  0  0  0  0  4  0  0  0  0  0  0
    0.0000   -1.3304    0.0000 O   0  0  0  0  0  2  0  0  0  0  0  0
    1.9956   -0.1796    0.0000 C   0  0  0  0  0  4  0  0  0  0  0  0
    3.3261   -0.1796    0.0000 C   0  0  0  0  0  4  0  0  0  0  0  0
    5.3217    0.0000    0.0000 C   0  0  0  0  0  4  0  0  0  0  0  0
    6.6521   -1.3304    0.0000 C   0  0  0  0  0  4  0  0  0  0  0  0
    5.3217   -2.6609    0.0000 C   0  0  0  0  0  4  0  0  0  0  0  0
  1  2  1  0  0  0  0 
  1  9  1  0  0  0  0 
  1 10  1  0  0  0  0 
  1 11  1  0  0  0  0 
  2  3  2  0  0  0  0 
  2  8  1  0  0  0  0 
  3  4  1  0  0  0  0 
  4  5  2  0  0  0  0 
  5  6  1  0  0  0  0 
  5  7  1  0  0  0  0 
  7  8  2  0  0  0  0 
M  END
> <CDK Fingerprint>
AgAAAAAAAAAAAAAAAAAAAAAAAAAACAACYQAAAAAAAAAAAAAAACAAACAAAAAAQAAAAEAAAAAABAgAAAAAAAAAAAAAAACAABAAAAAAAAAAgAAAAACAACAAAgBAICAAAAAAAkAABAAAABQAgAAAAAAAAAAAAAAA

> <ActivityOutcome_CPDBAS_Rat>
inactive

$$$$

  CDK     0721101958

  8  7  0  0  0  0  0  0  0  0999 V2000
    3.9913    0.0000    0.0000 N   0  0  0  0  0  3  0  0  0  0  0  0
    4.6555   -1.1549    0.0000 C   0  0  0  0  0  4  0  0  0  0  0  0
    5.9839   -1.1549    0.0000 O   0  0  0  0  0  2  0  0  0  0  0  0
    3.9913   -2.3038    0.0000 N   0  0  0  0  0  3  0  0  0  0  0  0
    2.6569   -2.3038    0.0000 C   0  0  0  0  0  4  0  0  0  0  0  0
    1.9926   -1.1549    0.0000 C   0  0  0  0  0  4  0  0  0  0  0  0
    0.6642   -1.1549    0.0000 C   0  0  0  0  0  4  0  0  0  0  0  0
    0.0000    0.0000    0.0000 C   0  0  0  0  0  4  0  0  0  0  0  0
  1  2  1  0  0  0  0 
  2  3  2  0  0  0  0 
  2  4  1  0  0  0  0 
  4  5  1  0  0  0  0 
  5  6  1  0  0  0  0 
  6  7  1  0  0  0  0 
  7  8  1  0  0  0  0 
M  END
> <CDK Fingerprint>
AhAAQAABAAAAAAAAAAAAAAAAAAAAAAAAAAAAYAAAAIAAAAAAAAABACAAQAACAAAAAAAAAMAAAACAAAAAAAAAQAAAAAAAAACAAABAACAAQAAAAAAAAAAAAAAAQAAAAAAAAAAAAAAQAAAgAAAAAEAAAAAAAAAAAgAA

> <ActivityOutcome_CPDBAS_Rat>
inactive

$$$$

  CDK     0721101958

  6  6  0  0  0  0  0  0  0  0999 V2000
    0.0000   -0.9402    0.0000 C   0  0  0  0  0  4  0  0  0  0  0  0
    1.3308   -0.9402    0.0000 C   0  0  0  0  0  4  0  0  0  0  0  0
    2.2710    0.0000    0.0000 C   0  0  0  0  0  4  0  0  0  0  0  0
    3.2111   -0.9402    0.0000 C   0  0  0  0  0  4  0  0  0  0  0  0
    4.5419   -0.9402    0.0000 O   0  0  0  0  0  2  0  0  0  0  0  0
    2.2710   -1.8804    0.0000 O   0  0  0  0  0  2  0  0  0  0  0  0
  1  2  1  0  0  0  0 
  2  3  1  0  0  0  0 
  2  6  1  0  0  0  0 
  3  4  1  0  0  0  0 
  4  5  2  0  0  0  0 
  4  6  1  0  0  0  0 
M  END
> <CDK Fingerprint>
AgAAAAAAAAAAAAAAAIAAAACAAAAAAAAAYACAAAAAAAAAAAAAUCACAAAAAAAAAAAAIkAAAAAAAAAAAAAAAAAAAAAAAAAAAAAAAAAAAAAAABAAAAAAAAAAQAAAAAAAAAAAAAAQAAEAAAAAAFAQAAAAAAAAAAAA

> <ActivityOutcome_CPDBAS_Rat>
active

> <TD50_Rat_mmol>
0.16

$$$$

  CDK     0721101958

  6  6  0  0  0  0  0  0  0  0999 V2000
    0.0000   -1.0738    0.0000 O   0  0  0  0  0  2  0  0  0  0  0  0
    1.3304   -1.0738    0.0000 C   0  0  0  0  0  4  0  0  0  0  0  0
    2.1104    0.0000    0.0000 C   0  0  0  0  0  4  0  0  0  0  0  0
    3.3767   -0.4086    0.0000 C   0  0  0  0  0  4  0  0  0  0  0  0
    3.3767   -1.7390    0.0000 C   0  0  0  0  0  4  0  0  0  0  0  0
    2.1104   -2.1509    0.0000 O   0  0  0  0  0  2  0  0  0  0  0  0
  1  2  2  0  0  0  0 
  2  3  1  0  0  0  0 
  2  6  1  0  0  0  0 
  3  4  1  0  0  0  0 
  4  5  1  0  0  0  0 
  5  6  1  0  0  0  0 
M  END
> <CDK Fingerprint>
AIAAAAAAAAAAAAIAAAAAAAAAAAAAAACAAAAAgAAAAAQAAGAAgAAAAAAAAAAAAFAgAgAAAAAAAAAAACBAAAAAAAAAAAAAAAAAAAAAAAAAAAAAAAAAAABAAAAQAAAAAAAAAEAAAAAAAAAAAAAAEAABAAAAAABQEAAAAAAAAAAAAA==

> <ActivityOutcome_CPDBAS_Rat>
inactive

$$$$

  CDK     0721101958

 13 13  0  0  0  0  0  0  0  0999 V2000
    0.0000    1.4013    0.0000 O   0  0  0  0  0  2  0  0  0  0  0  0
    1.2145    2.0978    0.0000 C   0  0  0  0  0  4  0  0  0  0  0  0
    1.2145    3.4991    0.0000 C   0  0  0  0  0  4  0  0  0  0  0  0
    2.4288    4.2039    0.0000 C   0  0  0  0  0  4  0  0  0  0  0  0
    3.6433    3.4991    0.0000 C   0  0  0  0  0  4  0  0  0  0  0  0
    3.6433    2.0978    0.0000 C   0  0  0  0  0  4  0  0  0  0  0  0
    2.4288    1.4013    0.0000 C   0  0  0  0  0  4  0  0  0  0  0  0
    4.8493    1.4013    0.0000 C   0  0  0  0  0  4  0  0  0  0  0  0
    6.0638    2.0978    0.0000 C   0  0  0  0  0  4  0  0  0  0  0  0
    7.2782    1.4013    0.0000 C   0  0  0  0  0  4  0  0  0  0  0  0
    7.2782    0.0000    0.0000 O   0  0  0  0  0  2  0  0  0  0  0  0
    8.4927    2.0978    0.0000 O   0  0  0  0  0  2  0  0  0  0  0  0
    0.0000    4.2039    0.0000 O   0  0  0  0  0  2  0  0  0  0  0  0
  1  2  1  0  0  0  0 
  2  3  2  0  0  0  0 
  2  7  1  0  0  0  0 
  3  4  1  0  0  0  0 
  3 13  1  0  0  0  0 
  4  5  2  0  0  0  0 
  5  6  1  0  0  0  0 
  6  7  2  0  0  0  0 
  6  8  1  0  0  0  0 
  8  9  2  0  0  0  0 
  9 10  1  0  0  0  0 
 10 11  2  0  0  0  0 
 10 12  1  0  0  0  0 
M  END
> <CDK Fingerprint>
QAABEAAAgAAAAAIAAAAAEAAAAAAAIAAAAAQAAAoAACIAAmEARACAgAAAAAAAgBAgAAAgABAQAEAAAACAAAQAAASAAABACBIAAAAAABAAgAAQAAAAAAgAAIAQAAACgAAggEAgQCAgAEAAkAJAAAgAAAAAAIBwCAAAAAAAAAAAAA==

> <ActivityOutcome_CPDBAS_Rat>
active

> <TD50_Rat_mmol>
1.65

$$$$

  CDK     0721101958

 14 15  0  0  0  0  0  0  0  0999 V2000
    3.9864   -4.6079    0.0000 O   0  0  0  0  0  2  0  0  0  0  0  0
    3.3272   -3.4590    0.0000 C   0  0  0  0  0  4  0  0  0  0  0  0
    3.9864   -2.3039    0.0000 C   0  0  0  0  0  4  0  0  0  0  0  0
    3.3272   -1.1551    0.0000 C   0  0  0  0  0  4  0  0  0  0  0  0
    4.2124   -0.1632    0.0000 N   0  0  0  0  0  3  0  0  0  0  0  0
    5.4302   -0.7031    0.0000 C   0  0  0  0  0  4  0  0  0  0  0  0
    5.2921   -2.0277    0.0000 N   0  0  0  0  0  3  0  0  0  0  0  0
    6.2777   -2.9192    0.0000 C   0  0  0  0  0  4  0  0  0  0  0  0
    1.9963   -1.1551    0.0000 N   0  0  0  0  0  3  0  0  0  0  0  0
    1.3309   -2.3039    0.0000 C   0  0  0  0  0  4  0  0  0  0  0  0
    0.0000   -2.3039    0.0000 O   0  0  0  0  0  2  0  0  0  0  0  0
    1.9963   -3.4590    0.0000 N   0  0  0  0  0  3  0  0  0  0  0  0
    1.3309   -4.6079    0.0000 C   0  0  0  0  0  4  0  0  0  0  0  0
    1.3309    0.0000    0.0000 C   0  0  0  0  0  4  0  0  0  0  0  0
  1  2  2  0  0  0  0 
  2  3  1  0  0  0  0 
  2 12  1  0  0  0  0 
  3  4  2  0  0  0  0 
  3  7  1  0  0  0  0 
  4  5  1  0  0  0  0 
  4  9  1  0  0  0  0 
  5  6  2  0  0  0  0 
  6  7  1  0  0  0  0 
  7  8  1  0  0  0  0 
  9 10  1  0  0  0  0 
  9 14  1  0  0  0  0 
 10 11  2  0  0  0  0 
 10 12  1  0  0  0  0 
 12 13  1  0  0  0  0 
M  END
> <CDK Fingerprint>
ICiCfLCOZwIQguAAI2EAAABgAAEAQQAEIGAAAEyoBFIRDWAAQBSAAAAAASAE4WFgAAyWBAICBkAhAIKURAAB1REAAAYCQAEAQmRAAAAAkABgGAhCQUAMIAAAQ0AAgAQAgEAwBEBTFQAAAAAAICEAAgBBIgBUAMAYAIKQwQpQAg==

> <ActivityOutcome_CPDBAS_Rat>
inactive

$$$$

  CDK     0721101958

 45 50  0  0  0  0  0  0  0  0999 V2000
    8.0526   -7.3096    0.0000 C   0  0  0  0  0  4  0  0  0  0  0  0
    8.0526   -6.0043    0.0000 C   0  0  0  0  0  4  0  0  0  0  0  0
    9.2173   -5.3216    0.0000 C   0  0  0  0  0  4  0  0  0  0  0  0
    9.2173   -7.9924    0.0000 C   0  0  0  0  0  4  0  0  0  0  0  0
   10.3620   -7.3096    0.0000 C   0  0  0  0  0  4  0  0  0  0  0  0
   10.3620   -6.0043    0.0000 C   0  0  0  0  0  4  0  0  0  0  0  0
   11.6271   -5.6027    0.0000 N   0  0  0  0  0  3  0  0  0  0  0  0
   12.4103   -6.6670    0.0000 C   0  0  0  0  0  4  0  0  0  0  0  0
   11.6271   -7.7514    0.0000 N   0  0  0  0  0  3  0  0  0  0  0  0
   13.7557   -6.6670    0.0000 O   0  0  0  0  0  2  0  0  0  0  0  0
   14.3983   -7.8317    0.0000 C   0  0  0  0  0  4  0  0  0  0  0  0
   15.7438   -7.8317    0.0000 C   0  0  0  0  0  4  0  0  0  0  0  0
   12.1291   -4.3577    0.0000 C   0  0  0  0  0  4  0  0  0  0  0  0
   13.4344   -4.3577    0.0000 C   0  0  0  0  0  4  0  0  0  0  0  0
   14.0770   -3.1729    0.0000 C   0  0  0  0  0  4  0  0  0  0  0  0
   15.4225   -3.1729    0.0000 C   0  0  0  0  0  4  0  0  0  0  0  0
   16.0852   -4.3577    0.0000 C   0  0  0  0  0  4  0  0  0  0  0  0
   15.4225   -5.4822    0.0000 C   0  0  0  0  0  4  0  0  0  0  0  0
   14.0770   -5.4822    0.0000 C   0  0  0  0  0  4  0  0  0  0  0  0
   17.4306   -4.3577    0.0000 C   0  0  0  0  0  4  0  0  0  0  0  0
   18.0732   -3.1729    0.0000 C   0  0  0  0  0  4  0  0  0  0  0  0
   19.3986   -3.1729    0.0000 C   0  0  0  0  0  4  0  0  0  0  0  0
   20.0814   -4.3577    0.0000 C   0  0  0  0  0  4  0  0  0  0  0  0
   19.3986   -5.4822    0.0000 C   0  0  0  0  0  4  0  0  0  0  0  0
   18.0732   -5.4822    0.0000 C   0  0  0  0  0  4  0  0  0  0  0  0
   17.4306   -2.0483    0.0000 C   0  0  0  0  0  4  0  0  0  0  0  0
   16.0852   -2.0483    0.0000 N   0  0  0  0  0  3  0  0  0  0  0  0
   15.6835   -0.7832    0.0000 N   0  0  0  0  0  3  0  0  0  0  0  0
   16.7479    0.0000    0.0000 N   0  0  0  0  0  3  0  0  0  0  0  0
   17.8122   -0.7832    0.0000 N   0  0  0  0  0  3  0  0  0  0  0  0
    9.2173   -3.9761    0.0000 C   0  0  0  0  0  4  0  0  0  0  0  0
    8.0526   -3.3335    0.0000 O   0  0  0  0  0  2  0  0  0  0  0  0
   10.3620   -3.3335    0.0000 O   0  0  0  0  0  2  0  0  0  0  0  0
    6.9080   -3.9761    0.0000 C   0  0  0  0  0  4  0  0  0  0  0  0
    5.7433   -3.3335    0.0000 O   0  0  0  0  0  2  0  0  0  0  0  0
    4.5786   -3.9761    0.0000 C   0  0  0  0  0  4  0  0  0  0  0  0
    3.4540   -3.3335    0.0000 O   0  0  0  0  0  2  0  0  0  0  0  0
    2.3094   -3.9761    0.0000 C   0  0  0  0  0  4  0  0  0  0  0  0
    6.9080   -5.3216    0.0000 C   0  0  0  0  0  4  0  0  0  0  0  0
    4.5786   -5.3216    0.0000 O   0  0  0  0  0  2  0  0  0  0  0  0
    2.3094   -5.3216    0.0000 C   0  0  0  0  0  4  0  0  0  0  0  0
    1.1446   -6.0043    0.0000 C   0  0  0  0  0  4  0  0  0  0  0  0
    0.0000   -5.3216    0.0000 C   0  0  0  0  0  4  0  0  0  0  0  0
    0.0000   -3.9761    0.0000 C   0  0  0  0  0  4  0  0  0  0  0  0
    1.1446   -3.3335    0.0000 C   0  0  0  0  0  4  0  0  0  0  0  0
  1  2  2  0  0  0  0 
  1  4  1  0  0  0  0 
  2  3  1  0  0  0  0 
  3  6  2  0  0  0  0 
  3 31  1  0  0  0  0 
  4  5  2  0  0  0  0 
  5  6  1  0  0  0  0 
  5  9  1  0  0  0  0 
  6  7  1  0  0  0  0 
  7 13  1  0  0  0  0 
  7  8  1  0  0  0  0 
  8 10  1  0  0  0  0 
  8  9  2  0  0  0  0 
 10 11  1  0  0  0  0 
 11 12  1  0  0  0  0 
 13 14  1  0  0  0  0 
 14 15  2  0  0  0  0 
 14 19  1  0  0  0  0 
 15 16  1  0  0  0  0 
 16 17  2  0  0  0  0 
 17 18  1  0  0  0  0 
 17 20  1  0  0  0  0 
 18 19  2  0  0  0  0 
 20 25  1  0  0  0  0 
 20 21  2  0  0  0  0 
 21 22  1  0  0  0  0 
 21 26  1  0  0  0  0 
 22 23  2  0  0  0  0 
 23 24  1  0  0  0  0 
 24 25  2  0  0  0  0 
 26 27  2  0  0  0  0 
 26 30  1  0  0  0  0 
 27 28  1  0  0  0  0 
 28 29  2  0  0  0  0 
 29 30  1  0  0  0  0 
 31 32  1  0  0  0  0 
 31 33  2  0  0  0  0 
 32 34  1  0  0  0  0 
 34 35  1  0  0  0  0 
 34 39  1  0  0  0  0 
 35 36  1  0  0  0  0 
 36 37  1  0  0  0  0 
 36 40  2  0  0  0  0 
 37 38  1  0  0  0  0 
 38 41  1  0  0  0  0 
 38 45  1  0  0  0  0 
 41 42  1  0  0  0  0 
 42 43  1  0  0  0  0 
 43 44  1  0  0  0  0 
 44 45  1  0  0  0  0 
M  END
> <CDK Fingerprint>
K+WYAmiesgNaRrWvgCWiAIQhRASJFAggwADCgIMgCHQQU9RoNegpZIWEAAQIEMLwsIaqdEEITiDNYMCBU+AJ0BUcQsiMgiFIAjxGXMNBCEIAYwAK0TSHTXTFcSJEKImkIFpA80Tyr0BEDWAWYJ3BCNKEA7iB9Bn8EE0IKKgLKEI=

> <ActivityOutcome_CPDBAS_Rat>
inactive

$$$$

  CDK     0721101958

  8  8  0  0  0  0  0  0  0  0999 V2000
    0.0000   -1.4934    0.0000 O   0  0  0  0  0  2  0  0  0  0  0  0
    1.3279   -1.4934    0.0000 C   0  0  0  0  0  4  0  0  0  0  0  0
    1.9049   -0.2927    0.0000 C   0  0  0  0  0  4  0  0  0  0  0  0
    3.2031    0.0000    0.0000 C   0  0  0  0  0  4  0  0  0  0  0  0
    4.2426   -0.8273    0.0000 C   0  0  0  0  0  4  0  0  0  0  0  0
    4.2426   -2.1595    0.0000 C   0  0  0  0  0  4  0  0  0  0  0  0
    3.2031   -2.9868    0.0000 C   0  0  0  0  0  4  0  0  0  0  0  0
    1.9049   -2.6898    0.0000 N   0  0  0  0  0  3  0  0  0  0  0  0
  1  2  2  0  0  0  0 
  2  3  1  0  0  0  0 
  2  8  1  0  0  0  0 
  3  4  1  0  0  0  0 
  4  5  1  0  0  0  0 
  5  6  1  0  0  0  0 
  6  7  1  0  0  0  0 
  7  8  1  0  0  0  0 
M  END
> <CDK Fingerprint>
EgAAAAAAAgCAAAABAAAAAAAAAAAAAEAAAAAAAAAAAQEAYAAEAAAAAAAAAAABACAAEAACAAAAAABAIMAAAACAAAAAAAAAQAAAAAAAAACAAABAACAAQAAAAAAAAAAAAAAAQAAAAQAAAAAIIAAQAAEAAAAAAFAAAAAAAAAEAgAA

> <ActivityOutcome_CPDBAS_Rat>
inactive

$$$$

  CDK     0721101958

 18 19  0  0  0  0  0  0  0  0999 V2000
    2.3001   -1.6689    0.0000 C   0  0  0  0  0  4  0  0  0  0  0  0
    2.3001   -3.0006    0.0000 C   0  0  0  0  0  4  0  0  0  0  0  0
    3.5713   -3.4156    0.0000 C   0  0  0  0  0  4  0  0  0  0  0  0
    3.9777   -4.6781    0.0000 O   0  0  0  0  0  2  0  0  0  0  0  0
    4.3495   -2.3347    0.0000 N   0  0  0  0  0  3  0  0  0  0  0  0
    3.5713   -1.2625    0.0000 C   0  0  0  0  0  4  0  0  0  0  0  0
    3.9777    0.0000    0.0000 O   0  0  0  0  0  2  0  0  0  0  0  0
    5.6812   -2.3347    0.0000 S   0  0  0  0  0  2  0  0  0  0  0  0
    6.3470   -3.4935    0.0000 C   0  0  0  0  0  4  0  0  0  0  0  0
    7.4971   -2.8276    0.0000 C   0  0  0  0  0  4  0  0  0  0  0  0
    7.4971   -1.4960    0.0000 Cl  0  0  0  0  0  1  0  0  0  0  0  0
    8.6472   -3.4935    0.0000 Cl  0  0  0  0  0  1  0  0  0  0  0  0
    7.0128   -4.6435    0.0000 Cl  0  0  0  0  0  1  0  0  0  0  0  0
    5.1883   -4.1506    0.0000 Cl  0  0  0  0  0  1  0  0  0  0  0  0
    1.1501   -3.6664    0.0000 C   0  0  0  0  0  4  0  0  0  0  0  0
    0.0000   -3.0006    0.0000 C   0  0  0  0  0  4  0  0  0  0  0  0
    0.0000   -1.6689    0.0000 C   0  0  0  0  0  4  0  0  0  0  0  0
    1.1501   -1.0117    0.0000 C   0  0  0  0  0  4  0  0  0  0  0  0
  1  2  1  0  0  0  0 
  1  6  1  0  0  0  0 
  1 18  1  0  0  0  0 
  2  3  1  0  0  0  0 
  2 15  1  0  0  0  0 
  3  4  2  0  0  0  0 
  3  5  1  0  0  0  0 
  5  6  1  0  0  0  0 
  5  8  1  0  0  0  0 
  6  7  2  0  0  0  0 
  8  9  1  0  0  0  0 
  9 10  1  0  0  0  0 
  9 13  1  0  0  0  0 
  9 14  1  0  0  0  0 
 10 11  1  0  0  0  0 
 10 12  1  0  0  0  0 
 15 16  1  0  0  0  0 
 16 17  2  0  0  0  0 
 17 18  1  0  0  0  0 
M  END
> <CDK Fingerprint>
RBIEABAAhAYAAAAAAQAAAEEQBoAUQgFAAAAAAAACAKUBAeBABAIAAsgAAAgBEQAgABBQBgBQAAAMQCHAgAEB0FAABAQgBEAJAACAgAAAgAAAQBKqQUAIAEIAAAAMkQAIAEAQAAEQgAAAACCAEAAhBCCACADwCAABAEBBAEIIIA==

> <ActivityOutcome_CPDBAS_Rat>
active

> <TD50_Rat_mmol>
0.21

$$$$

  CDK     0721101958

 16 17  0  0  0  0  0  0  0  0999 V2000
    4.9479   -4.0566    0.0000 O   0  0  0  0  0  2  0  0  0  0  0  0
    3.9584   -3.1652    0.0000 C   0  0  0  0  0  4  0  0  0  0  0  0
    4.1019   -1.8432    0.0000 N   0  0  0  0  0  3  0  0  0  0  0  0
    2.8857   -1.2993    0.0000 C   0  0  0  0  0  4  0  0  0  0  0  0
    2.6062    0.0000    0.0000 O   0  0  0  0  0  2  0  0  0  0  0  0
    1.9943   -2.2889    0.0000 C   0  0  0  0  0  4  0  0  0  0  0  0
    2.6590   -3.4447    0.0000 C   0  0  0  0  0  4  0  0  0  0  0  0
    1.9943   -4.5929    0.0000 C   0  0  0  0  0  4  0  0  0  0  0  0
    0.6648   -4.5929    0.0000 C   0  0  0  0  0  4  0  0  0  0  0  0
    0.0000   -3.4447    0.0000 C   0  0  0  0  0  4  0  0  0  0  0  0
    0.6648   -2.2889    0.0000 C   0  0  0  0  0  4  0  0  0  0  0  0
    5.2501   -1.1784    0.0000 S   0  0  0  0  0  2  0  0  0  0  0  0
    6.4059   -1.8432    0.0000 C   0  0  0  0  0  4  0  0  0  0  0  0
    7.0707   -0.6874    0.0000 Cl  0  0  0  0  0  1  0  0  0  0  0  0
    7.5541   -2.5080    0.0000 Cl  0  0  0  0  0  1  0  0  0  0  0  0
    5.7411   -2.9914    0.0000 Cl  0  0  0  0  0  1  0  0  0  0  0  0
  1  2  2  0  0  0  0 
  2  3  1  0  0  0  0 
  2  7  1  0  0  0  0 
  3  4  1  0  0  0  0 
  3 12  1  0  0  0  0 
  4  5  2  0  0  0  0 
  4  6  1  0  0  0  0 
  6  7  1  0  0  0  0 
  6 11  1  0  0  0  0 
  7  8  1  0  0  0  0 
  8  9  1  0  0  0  0 
  9 10  2  0  0  0  0 
 10 11  1  0  0  0  0 
 12 13  1  0  0  0  0 
 13 14  1  0  0  0  0 
 13 15  1  0  0  0  0 
 13 16  1  0  0  0  0 
M  END
> <CDK Fingerprint>
RBIEABAAgAYAAAAAAQAAAEEQBoAEQgBAAAAAAAACAKUBAeBABAIAAsgAAAgBEQAgABBQBgBQAAAIQCHAAAEB0FAAAAQgBEAJAACAgAAAgAAAQBKqAUAAAEIAAAAIEQAIAEAAAAEAAAAAACCAEAAhBACACADwCAAAAEBAAAIIIA==

> <ActivityOutcome_CPDBAS_Rat>
active

> <TD50_Rat_mmol>
6.92

$$$$

  CDK     0721101958

 15 16  0  0  0  0  0  0  0  0999 V2000
    1.1543   -0.6704    0.0000 O   0  0  0  0  0  2  0  0  0  0  0  0
    1.1543   -1.9975    0.0000 C   0  0  0  0  0  4  0  0  0  0  0  0
    2.3016   -2.6610    0.0000 O   0  0  0  0  0  2  0  0  0  0  0  0
    3.4559   -1.9975    0.0000 C   0  0  0  0  0  4  0  0  0  0  0  0
    4.6102   -2.6610    0.0000 C   0  0  0  0  0  4  0  0  0  0  0  0
    5.7575   -1.9975    0.0000 C   0  0  0  0  0  4  0  0  0  0  0  0
    5.7575   -0.6704    0.0000 C   0  0  0  0  0  4  0  0  0  0  0  0
    4.6102    0.0000    0.0000 C   0  0  0  0  0  4  0  0  0  0  0  0
    3.4559   -0.6704    0.0000 C   0  0  0  0  0  4  0  0  0  0  0  0
    6.9118   -2.6610    0.0000 C   0  0  0  0  0  4  0  0  0  0  0  0
    6.9118   -3.9950    0.0000 C   0  0  0  0  0  4  0  0  0  0  0  0
    5.7575   -4.6585    0.0000 C   0  0  0  0  0  4  0  0  0  0  0  0
    4.6102   -3.9950    0.0000 C   0  0  0  0  0  4  0  0  0  0  0  0
    0.0000   -2.6610    0.0000 N   0  0  0  0  0  3  0  0  0  0  0  0
    0.0000   -3.9950    0.0000 C   0  0  0  0  0  4  0  0  0  0  0  0
  1  2  2  0  0  0  0 
  2  3  1  0  0  0  0 
  2 14  1  0  0  0  0 
  3  4  1  0  0  0  0 
  4  5  2  0  0  0  0 
  4  9  1  0  0  0  0 
  5  6  1  0  0  0  0 
  5 13  1  0  0  0  0 
  6  7  2  0  0  0  0 
  6 10  1  0  0  0  0 
  7  8  1  0  0  0  0 
  8  9  2  0  0  0  0 
 10 11  2  0  0  0  0 
 11 12  1  0  0  0  0 
 12 13  2  0  0  0  0 
 14 15  1  0  0  0  0 
M  END
> <CDK Fingerprint>
AKAAAAAAAAAAAAAAAgAAAAAAAAAAAAAAAIAAEACAAAAAAAACaRAABBAAAAAAAAAAAAAAACAAAAAAQAAAAMCAAACAAhIwAACAAACAAAQAAACAAAAAAAAAEAhAAAEAAgAAACAARAAAICggAABAAgEAAAAAAAAAgEAAAEAAAAAAIgAA

> <ActivityOutcome_CPDBAS_Rat>
active

> <TD50_Rat_mmol>
0.0701

$$$$

  CDK     0721101958

  5  4  0  0  0  0  0  0  0  0999 V2000
    1.3300   -2.6600    0.0000 Cl  0  0  0  0  0  1  0  0  0  0  0  0
    1.3300   -1.3300    0.0000 C   0  0  0  0  0  4  0  0  0  0  0  0
    0.0000   -1.3300    0.0000 Cl  0  0  0  0  0  1  0  0  0  0  0  0
    1.3300    0.0000    0.0000 Cl  0  0  0  0  0  1  0  0  0  0  0  0
    2.6600   -1.3300    0.0000 Cl  0  0  0  0  0  1  0  0  0  0  0  0
  1  2  1  0  0  0  0 
  2  3  1  0  0  0  0 
  2  4  1  0  0  0  0 
  2  5  1  0  0  0  0 
M  END
> <CDK Fingerprint>
AMAAAAAAAAAAAAAAAAAAAAAABAAAAAAAAAAAAAABAAAAAAAAAAAAAAAAAAAAAAAAAAAAAAAAAAAAAAAAAAAAAAAAAAAAAAAAAAAAAAAAAAAAAAAAAAAAAAAAAAAAAA==

> <ActivityOutcome_CPDBAS_Rat>
active

> <TD50_Rat_mmol>
0.181

$$$$

  CDK     0721101958

 10  9  0  0  0  0  0  0  0  0999 V2000
    2.3042   -1.9989    0.0000 N   0  0  0  0  0  3  0  0  0  0  0  0
    2.3042   -0.6682    0.0000 C   0  0  0  0  0  4  0  0  0  0  0  0
    3.4563    0.0000    0.0000 O   0  0  0  0  0  2  0  0  0  0  0  0
    1.1521    0.0000    0.0000 N   0  0  0  0  0  3  0  0  0  0  0  0
    1.1521   -2.6614    0.0000 N   0  0  0  0  0  3  0  0  0  0  0  0
    0.0000   -1.9989    0.0000 O   0  0  0  0  0  2  0  0  0  0  0  0
    3.4563   -2.6614    0.0000 C   0  0  0  0  0  4  0  0  0  0  0  0
    4.6084   -1.9989    0.0000 C   0  0  0  0  0  4  0  0  0  0  0  0
    4.6084   -0.6682    0.0000 O   0  0  0  0  0  2  0  0  0  0  0  0
    5.7605   -2.6614    0.0000 O   0  0  0  0  0  2  0  0  0  0  0  0
  1  2  1  0  0  0  0 
  1  5  1  0  0  0  0 
  1  7  1  0  0  0  0 
  2  3  2  0  0  0  0 
  2  4  1  0  0  0  0 
  5  6  2  0  0  0  0 
  7  8  1  0  0  0  0 
  8  9  2  0  0  0  0 
  8 10  1  0  0  0  0 
M  END
> <CDK Fingerprint>
AhAASoAAgAAAABAAAAgAAAAAAQAAAAAEBQAAYAAAAoAAAAAAAAABCCAAAQAAIAAAAAAEAIAAAAKAAAAAAAAAAAAAAAAAAACAAAAAYAAAAAAAABAAAAAAAAAARCAAAAAAAAAAAAAAAACAAAAAAFAEAAAAAAAAAwAA

> <ActivityOutcome_CPDBAS_Rat>
active

> <TD50_Rat_mmol>
0.0293

$$$$

  CDK     0721101958

 12 11  0  0  0  0  0  0  0  0999 V2000
    3.3254   -1.9916    0.0000 Br  0  0  0  0  0  1  0  0  0  0  0  0
    1.9916   -1.9916    0.0000 C   0  0  0  0  0  4  0  0  0  0  0  0
    1.9916   -3.3254    0.0000 C   0  0  0  0  0  4  0  0  0  0  0  0
    0.8433   -3.9892    0.0000 O   0  0  0  0  0  2  0  0  0  0  0  0
    3.1459   -3.9892    0.0000 N   0  0  0  0  0  3  0  0  0  0  0  0
    3.1459   -5.3170    0.0000 C   0  0  0  0  0  4  0  0  0  0  0  0
    4.2943   -5.9809    0.0000 O   0  0  0  0  0  2  0  0  0  0  0  0
    1.9916   -5.9809    0.0000 N   0  0  0  0  0  3  0  0  0  0  0  0
    0.6639   -1.9916    0.0000 C   0  0  0  0  0  4  0  0  0  0  0  0
    0.0000   -3.1459    0.0000 C   0  0  0  0  0  4  0  0  0  0  0  0
    1.9916   -0.6639    0.0000 C   0  0  0  0  0  4  0  0  0  0  0  0
    3.1459    0.0000    0.0000 C   0  0  0  0  0  4  0  0  0  0  0  0
  1  2  1  0  0  0  0 
  2  3  1  0  0  0  0 
  2  9  1  0  0  0  0 
  2 11  1  0  0  0  0 
  3  4  2  0  0  0  0 
  3  5  1  0  0  0  0 
  5  6  1  0  0  0  0 
  6  7  2  0  0  0  0 
  6  8  1  0  0  0  0 
  9 10  1  0  0  0  0 
 11 12  1  0  0  0  0 
M  END
> <CDK Fingerprint>
EAAAAhAAQAABAAAAAAAAACAAAgAAAAAACACAAAEA4AAAAIAAAAAAAAABQCAAQAACAAAAAAAAIMAAAACAAAAAAgAAQAAAAAABAACAAABAACAAQAIAAAAAAAAAAAAASAAAAAAAAAAAAAAQAAEgAAAAAFAAAAAAAAAAAgAA

> <ActivityOutcome_CPDBAS_Rat>
inactive

$$$$

  CDK     0721101958

 40 41  0  0  0  0  0  0  0  0999 V2000
    2.2980   -2.9847    0.0000 C   0  0  0  0  0  4  0  0  0  0  0  0
   24.0890   -2.3772    0.0000 C   0  0  0  0  0  4  0  0  0  0  0  0
   22.9532   -2.9847    0.0000 C   0  0  0  0  0  4  0  0  0  0  0  0
    3.4337   -2.3772    0.0000 C   0  0  0  0  0  4  0  0  0  0  0  0
    1.1622   -2.3772    0.0000 C   0  0  0  0  0  4  0  0  0  0  0  0
   25.2776   -2.9847    0.0000 C   0  0  0  0  0  4  0  0  0  0  0  0
    2.2980   -4.3318    0.0000 C   0  0  0  0  0  4  0  0  0  0  0  0
   24.0890   -0.9773    0.0000 C   0  0  0  0  0  4  0  0  0  0  0  0
   21.7910   -2.3772    0.0000 C   0  0  0  0  0  4  0  0  0  0  0  0
    4.5695   -2.9847    0.0000 C   0  0  0  0  0  4  0  0  0  0  0  0
    8.0297   -2.3772    0.0000 C   0  0  0  0  0  4  0  0  0  0  0  0
   18.3308   -2.9847    0.0000 C   0  0  0  0  0  4  0  0  0  0  0  0
    5.7053   -2.3772    0.0000 C   0  0  0  0  0  4  0  0  0  0  0  0
   20.6552   -2.9847    0.0000 C   0  0  0  0  0  4  0  0  0  0  0  0
   10.3012   -2.3772    0.0000 C   0  0  0  0  0  4  0  0  0  0  0  0
   16.0329   -2.9847    0.0000 C   0  0  0  0  0  4  0  0  0  0  0  0
    6.8939   -2.9847    0.0000 C   0  0  0  0  0  4  0  0  0  0  0  0
   19.4930   -2.3772    0.0000 C   0  0  0  0  0  4  0  0  0  0  0  0
    9.1918   -2.9847    0.0000 C   0  0  0  0  0  4  0  0  0  0  0  0
   17.1687   -2.3772    0.0000 C   0  0  0  0  0  4  0  0  0  0  0  0
   11.4370   -2.9847    0.0000 C   0  0  0  0  0  4  0  0  0  0  0  0
   14.8707   -2.3772    0.0000 C   0  0  0  0  0  4  0  0  0  0  0  0
   13.7085   -2.9847    0.0000 C   0  0  0  0  0  4  0  0  0  0  0  0
   12.5992   -2.3772    0.0000 C   0  0  0  0  0  4  0  0  0  0  0  0
    0.0000   -2.9847    0.0000 C   0  0  0  0  0  4  0  0  0  0  0  0
   26.4133   -2.3772    0.0000 C   0  0  0  0  0  4  0  0  0  0  0  0
    1.1622   -4.9657    0.0000 C   0  0  0  0  0  4  0  0  0  0  0  0
   25.2776   -0.3170    0.0000 C   0  0  0  0  0  4  0  0  0  0  0  0
    1.1622   -0.8716    0.0000 C   0  0  0  0  0  4  0  0  0  0  0  0
   25.2776   -4.3318    0.0000 C   0  0  0  0  0  4  0  0  0  0  0  0
    2.9055   -5.5732    0.0000 C   0  0  0  0  0  4  0  0  0  0  0  0
   22.8475   -0.9773    0.0000 C   0  0  0  0  0  4  0  0  0  0  0  0
   23.1909    0.0000    0.0000 C   0  0  0  0  0  4  0  0  0  0  0  0
    3.7243   -4.3318    0.0000 C   0  0  0  0  0  4  0  0  0  0  0  0
   26.4133   -0.9773    0.0000 C   0  0  0  0  0  4  0  0  0  0  0  0
    0.0000   -4.3318    0.0000 C   0  0  0  0  0  4  0  0  0  0  0  0
   20.6552   -4.3318    0.0000 C   0  0  0  0  0  4  0  0  0  0  0  0
    5.7053   -0.8716    0.0000 C   0  0  0  0  0  4  0  0  0  0  0  0
   16.0329   -4.3318    0.0000 C   0  0  0  0  0  4  0  0  0  0  0  0
   10.3012   -0.9509    0.0000 C   0  0  0  0  0  4  0  0  0  0  0  0
  1  4  1  0  0  0  0 
  1  5  2  0  0  0  0 
  1  7  1  0  0  0  0 
  2  3  1  0  0  0  0 
  2  6  2  0  0  0  0 
  2  8  1  0  0  0  0 
  3  9  2  0  0  0  0 
  4 10  2  0  0  0  0 
  5 25  1  0  0  0  0 
  5 29  1  0  0  0  0 
  6 26  1  0  0  0  0 
  6 30  1  0  0  0  0 
  7 27  1  0  0  0  0 
  7 31  1  0  0  0  0 
  7 34  1  0  0  0  0 
  8 28  1  0  0  0  0 
  8 32  1  0  0  0  0 
  8 33  1  0  0  0  0 
  9 14  1  0  0  0  0 
 10 13  1  0  0  0  0 
 11 17  1  0  0  0  0 
 11 19  2  0  0  0  0 
 12 20  2  0  0  0  0 
 12 18  1  0  0  0  0 
 13 17  2  0  0  0  0 
 13 38  1  0  0  0  0 
 14 18  2  0  0  0  0 
 14 37  1  0  0  0  0 
 15 19  1  0  0  0  0 
 15 21  2  0  0  0  0 
 15 40  1  0  0  0  0 
 16 22  2  0  0  0  0 
 16 20  1  0  0  0  0 
 16 39  1  0  0  0  0 
 21 24  1  0  0  0  0 
 22 23  1  0  0  0  0 
 23 24  2  0  0  0  0 
 25 36  1  0  0  0  0 
 26 35  1  0  0  0  0 
 27 36  1  0  0  0  0 
 28 35  1  0  0  0  0 
M  END
> <CDK Fingerprint>
QAAACAAAAEAAAAAAAAAAAIAAAoAEQABAAAAEAAEAAABRCMAAAAAAACAAAAAQAAAgAAAACAAQkAQAABBAAAQAAAEAAAQAAAAAAAAAAAABAABgAAABAAgUAAAAAAAJAAAAAAAAAABAAAAAAAABEAAAAAAAAACACAAAAABAAAAAIA==

> <ActivityOutcome_CPDBAS_Rat>
inactive

$$$$

  CDK     0721101958

  8  8  0  0  0  0  0  0  0  0999 V2000
    0.0000   -2.3027    0.0000 O   0  0  0  0  0  2  0  0  0  0  0  0
    1.3289   -2.3027    0.0000 C   0  0  0  0  0  4  0  0  0  0  0  0
    1.9954   -1.1533    0.0000 C   0  0  0  0  0  4  0  0  0  0  0  0
    3.3243   -1.1533    0.0000 C   0  0  0  0  0  4  0  0  0  0  0  0
    3.9907   -2.3027    0.0000 C   0  0  0  0  0  4  0  0  0  0  0  0
    3.3243   -3.4560    0.0000 C   0  0  0  0  0  4  0  0  0  0  0  0
    1.9954   -3.4560    0.0000 C   0  0  0  0  0  4  0  0  0  0  0  0
    1.3289    0.0000    0.0000 O   0  0  0  0  0  2  0  0  0  0  0  0
  1  2  1  0  0  0  0 
  2  3  2  0  0  0  0 
  2  7  1  0  0  0  0 
  3  4  1  0  0  0  0 
  3  8  1  0  0  0  0 
  4  5  2  0  0  0  0 
  5  6  1  0  0  0  0 
  6  7  2  0  0  0  0 
M  END
> <CDK Fingerprint>
AgAAAAAAAAAAAAAAAAAAAAAAAAAAAAACYQAAAAAAAAAAAAAAAAAAACAAAAAAQAAAAAAAAAAABAAAAAAAAgAAAAAAAACAAAAAAAAAAAAAAAAAAAAAACAAAAAAICAAAAAAAgAAAAAAAAAAgAAAAAAAAAAAAAAA

> <ActivityOutcome_CPDBAS_Rat>
active

> <TD50_Rat_mmol>
0.649

$$$$

  CDK     0721101958

 26 28  0  0  0  0  0  0  0  0999 V2000
    6.6580   -6.0225    0.0000 C   0  0  0  0  0  4  0  0  0  0  0  0
    7.8019   -6.6874    0.0000 S   0  0  0  0  0  6  0  0  0  0  0  0
    8.9556   -7.3522    0.0000 N   0  0  0  0  0  3  0  0  0  0  0  0
    7.1371   -7.8410    0.0000 O   0  0  0  0  0  2  0  0  0  0  0  0
    8.4667   -5.5435    0.0000 O   0  0  0  0  0  2  0  0  0  0  0  0
    6.6580   -4.6929    0.0000 C   0  0  0  0  0  4  0  0  0  0  0  0
    5.5044   -4.0281    0.0000 C   0  0  0  0  0  4  0  0  0  0  0  0
    4.3507   -4.6929    0.0000 C   0  0  0  0  0  4  0  0  0  0  0  0
    3.1970   -4.0281    0.0000 N   0  0  0  0  0  3  0  0  0  0  0  0
    3.0601   -2.7082    0.0000 N   0  0  0  0  0  3  0  0  0  0  0  0
    1.7598   -2.4344    0.0000 C   0  0  0  0  0  4  0  0  0  0  0  0
    1.2123   -1.2123    0.0000 C   0  0  0  0  0  4  0  0  0  0  0  0
    0.6746    0.0000    0.0000 F   0  0  0  0  0  1  0  0  0  0  0  0
    0.0000   -1.7598    0.0000 F   0  0  0  0  0  1  0  0  0  0  0  0
    2.4344   -0.6746    0.0000 F   0  0  0  0  0  1  0  0  0  0  0  0
    1.0950   -3.5783    0.0000 C   0  0  0  0  0  4  0  0  0  0  0  0
    1.9847   -4.5756    0.0000 C   0  0  0  0  0  4  0  0  0  0  0  0
    1.7012   -5.8759    0.0000 C   0  0  0  0  0  4  0  0  0  0  0  0
    0.4400   -6.2865    0.0000 C   0  0  0  0  0  4  0  0  0  0  0  0
    0.1662   -7.5868    0.0000 C   0  0  0  0  0  4  0  0  0  0  0  0
    1.1537   -8.4765    0.0000 C   0  0  0  0  0  4  0  0  0  0  0  0
    0.8799   -9.7768    0.0000 C   0  0  0  0  0  4  0  0  0  0  0  0
    2.4149   -8.0659    0.0000 C   0  0  0  0  0  4  0  0  0  0  0  0
    2.6984   -6.7656    0.0000 C   0  0  0  0  0  4  0  0  0  0  0  0
    4.3507   -6.0225    0.0000 C   0  0  0  0  0  4  0  0  0  0  0  0
    5.5044   -6.6874    0.0000 C   0  0  0  0  0  4  0  0  0  0  0  0
  1  2  1  0  0  0  0 
  1  6  2  0  0  0  0 
  1 26  1  0  0  0  0 
  2  3  1  0  0  0  0 
  2  4  2  0  0  0  0 
  2  5  2  0  0  0  0 
  6  7  1  0  0  0  0 
  7  8  2  0  0  0  0 
  8  9  1  0  0  0  0 
  8 25  1  0  0  0  0 
  9 10  1  0  0  0  0 
  9 17  1  0  0  0  0 
 10 11  2  0  0  0  0 
 11 12  1  0  0  0  0 
 11 16  1  0  0  0  0 
 12 13  1  0  0  0  0 
 12 14  1  0  0  0  0 
 12 15  1  0  0  0  0 
 16 17  2  0  0  0  0 
 17 18  1  0  0  0  0 
 18 19  2  0  0  0  0 
 18 24  1  0  0  0  0 
 19 20  1  0  0  0  0 
 20 21  2  0  0  0  0 
 21 22  1  0  0  0  0 
 21 23  1  0  0  0  0 
 23 24  2  0  0  0  0 
 25 26  2  0  0  0  0 
M  END
> <CDK Fingerprint>
AIgDSKhEASAiCIhYQLgAIjFECCgAEEAACEigggwAAjABrWEAIggAOSwUIgAQcoI4AGh0YRJEoEEoDUBgAIAgAFQAYEwgGSAEQgAJIAigABAEEAKCMEBBiKUQIAAQiAAggQAC1iAFEIAsYAbcEcINAQQgiICIIWAROAwKQAIwIA==

> <ActivityOutcome_CPDBAS_Rat>
inactive

$$$$

  CDK     0721101958

 27 27  0  0  0  0  0  0  0  0999 V2000
    7.3144   -2.2971    0.0000 C   0  0  0  0  0  4  0  0  0  0  0  0
    7.9794   -3.4607    0.0000 C   0  0  0  0  0  4  0  0  0  0  0  0
    7.3144   -4.6093    0.0000 C   0  0  0  0  0  4  0  0  0  0  0  0
    5.9845   -4.6093    0.0000 C   0  0  0  0  0  4  0  0  0  0  0  0
    5.3196   -3.4607    0.0000 C   0  0  0  0  0  4  0  0  0  0  0  0
    5.9845   -2.2971    0.0000 C   0  0  0  0  0  4  0  0  0  0  0  0
    3.9897   -3.4607    0.0000 N   0  0  0  0  0  3  0  0  0  0  0  0
    3.3247   -4.6093    0.0000 C   0  0  0  0  0  4  0  0  0  0  0  0
    1.9948   -4.6093    0.0000 N   0  0  0  0  0  3  0  0  0  0  0  0
    1.3299   -5.7578    0.0000 C   0  0  0  0  0  4  0  0  0  0  0  0
    0.0000   -5.7578    0.0000 C   0  0  0  0  0  4  0  0  0  0  0  0
    1.3299   -3.4607    0.0000 C   0  0  0  0  0  4  0  0  0  0  0  0
    1.9948   -2.2971    0.0000 C   0  0  0  0  0  4  0  0  0  0  0  0
    3.9897   -5.7578    0.0000 O   0  0  0  0  0  2  0  0  0  0  0  0
    9.3093   -3.4607    0.0000 O   0  0  0  0  0  2  0  0  0  0  0  0
    9.9742   -4.6093    0.0000 C   0  0  0  0  0  4  0  0  0  0  0  0
   11.3041   -4.6093    0.0000 C   0  0  0  0  0  4  0  0  0  0  0  0
   11.9690   -3.4607    0.0000 C   0  0  0  0  0  4  0  0  0  0  0  0
   13.2989   -3.4607    0.0000 N   0  0  0  0  0  3  0  0  0  0  0  0
   13.9639   -2.2971    0.0000 C   0  0  0  0  0  4  0  0  0  0  0  0
   12.8153   -1.6321    0.0000 C   0  0  0  0  0  4  0  0  0  0  0  0
   14.6288   -1.1485    0.0000 C   0  0  0  0  0  4  0  0  0  0  0  0
   15.1124   -2.9620    0.0000 C   0  0  0  0  0  4  0  0  0  0  0  0
   11.9690   -5.7578    0.0000 O   0  0  0  0  0  2  0  0  0  0  0  0
    7.9794   -1.1485    0.0000 C   0  0  0  0  0  4  0  0  0  0  0  0
    7.3144    0.0000    0.0000 C   0  0  0  0  0  4  0  0  0  0  0  0
    9.3093   -1.1485    0.0000 O   0  0  0  0  0  2  0  0  0  0  0  0
  1  2  2  0  0  0  0 
  1  6  1  0  0  0  0 
  1 25  1  0  0  0  0 
  2  3  1  0  0  0  0 
  2 15  1  0  0  0  0 
  3  4  2  0  0  0  0 
  4  5  1  0  0  0  0 
  5  6  2  0  0  0  0 
  5  7  1  0  0  0  0 
  7  8  1  0  0  0  0 
  8  9  1  0  0  0  0 
  8 14  2  0  0  0  0 
  9 10  1  0  0  0  0 
  9 12  1  0  0  0  0 
 10 11  1  0  0  0  0 
 12 13  1  0  0  0  0 
 15 16  1  0  0  0  0 
 16 17  1  0  0  0  0 
 17 18  1  0  0  0  0 
 17 24  1  0  0  0  0 
 18 19  1  0  0  0  0 
 19 20  1  0  0  0  0 
 20 21  1  0  0  0  0 
 20 22  1  0  0  0  0 
 20 23  1  0  0  0  0 
 25 26  1  0  0  0  0 
 25 27  2  0  0  0  0 
M  END
> <CDK Fingerprint>
BAAQIAAAACAiEIhGADEgBQCCBAACAABQgABBAAAGxANICEJpCRGQhAAAAAlEBAEYIAIUKACAAkBAAAQJwAQAA8AHHAgBEEMBCABgFCQAAIAIARBCIAAAQICIlAAIAsAEIAhAAERkMCAAIgAGQAAEAAAAVgCIUEtAIABgFEAiEAA=

> <ActivityOutcome_CPDBAS_Rat>
inactive

$$$$

  CDK     0721101958

  7  6  0  0  0  0  0  0  0  0999 V2000
    2.6608   -1.9956    0.0000 Cl  0  0  0  0  0  1  0  0  0  0  0  0
    1.3304   -1.9956    0.0000 C   0  0  0  0  0  4  0  0  0  0  0  0
    1.3304   -0.6652    0.0000 C   0  0  0  0  0  4  0  0  0  0  0  0
    0.1796    0.0000    0.0000 O   0  0  0  0  0  2  0  0  0  0  0  0
    2.4812    0.0000    0.0000 O   0  0  0  0  0  2  0  0  0  0  0  0
    1.3304   -3.3260    0.0000 Cl  0  0  0  0  0  1  0  0  0  0  0  0
    0.0000   -1.9956    0.0000 Cl  0  0  0  0  0  1  0  0  0  0  0  0
  1  2  1  0  0  0  0 
  2  3  1  0  0  0  0 
  2  6  1  0  0  0  0 
  2  7  1  0  0  0  0 
  3  4  1  0  0  0  0 
  3  5  1  0  0  0  0 
M  END
> <CDK Fingerprint>
AgAAAAAAAAAAAAAAAAAAAAAAAAAAAAAA4AAAAAAAAAAAAAAAACAAAAAGAAAAAAAAAAAAAAEAAAAIAAAAAAAAAAAAAAAAAAAAAAAAAAAAABEAAAAAAAAAAAAAAAAAAAAAAAAAAAAAAAAAAAAAAAAAAAAAAAAA

> <ActivityOutcome_CPDBAS_Rat>
inactive

$$$$

  CDK     0721101958

 12 12  0  0  0  0  0  0  0  0999 V2000
    2.6580   -4.6084    0.0000 Cl  0  0  0  0  0  1  0  0  0  0  0  0
    1.9970   -3.4586    0.0000 C   0  0  0  0  0  4  0  0  0  0  0  0
    0.6657   -3.4586    0.0000 C   0  0  0  0  0  4  0  0  0  0  0  0
    0.0000   -2.3042    0.0000 C   0  0  0  0  0  4  0  0  0  0  0  0
    0.6657   -1.1544    0.0000 C   0  0  0  0  0  4  0  0  0  0  0  0
    1.9970   -1.1544    0.0000 C   0  0  0  0  0  4  0  0  0  0  0  0
    2.6580   -2.3042    0.0000 C   0  0  0  0  0  4  0  0  0  0  0  0
    3.9893   -2.3042    0.0000 C   0  0  0  0  0  4  0  0  0  0  0  0
    4.6549   -1.1544    0.0000 O   0  0  0  0  0  2  0  0  0  0  0  0
    4.6549   -3.4586    0.0000 O   0  0  0  0  0  2  0  0  0  0  0  0
    0.0000    0.0000    0.0000 Cl  0  0  0  0  0  1  0  0  0  0  0  0
    0.0000   -4.6084    0.0000 N   0  0  0  0  0  3  0  0  0  0  0  0
  1  2  1  0  0  0  0 
  2  3  2  0  0  0  0 
  2  7  1  0  0  0  0 
  3  4  1  0  0  0  0 
  3 12  1  0  0  0  0 
  4  5  2  0  0  0  0 
  5  6  1  0  0  0  0 
  5 11  1  0  0  0  0 
  6  7  2  0  0  0  0 
  7  8  1  0  0  0  0 
  8  9  2  0  0  0  0 
  8 10  1  0  0  0  0 
M  END
> <CDK Fingerprint>
AQgABAAAACAgAIBSAAAAAQAAAAAAAABAAAAAAAAERAIAAADoAAAABAAAAAAAAACAIAAAAACAACBAAAAMAAABAQAEAAAAAAAAAAAAAAAAAAAACgAAAAAAAAGBEAAAAIAAIABAAMAgBAAIAABiQAAACASACACA0ApAAAEAAAACEAA=

> <ActivityOutcome_CPDBAS_Rat>
inactive

$$$$

  CDK     0721101958

 19 19  0  0  0  0  0  0  0  0999 V2000
    9.9785   -2.3050    0.0000 Cl  0  0  0  0  0  1  0  0  0  0  0  0
    9.3099   -3.4526    0.0000 C   0  0  0  0  0  4  0  0  0  0  0  0
    7.9828   -3.4526    0.0000 C   0  0  0  0  0  4  0  0  0  0  0  0
    7.3142   -4.6101    0.0000 N   0  0  0  0  0  3  0  0  0  0  0  0
    5.9871   -4.6101    0.0000 C   0  0  0  0  0  4  0  0  0  0  0  0
    5.3185   -5.7576    0.0000 C   0  0  0  0  0  4  0  0  0  0  0  0
    3.9914   -5.7576    0.0000 C   0  0  0  0  0  4  0  0  0  0  0  0
    3.3228   -4.6101    0.0000 C   0  0  0  0  0  4  0  0  0  0  0  0
    3.9914   -3.4526    0.0000 C   0  0  0  0  0  4  0  0  0  0  0  0
    5.3185   -3.4526    0.0000 C   0  0  0  0  0  4  0  0  0  0  0  0
    1.9957   -4.6101    0.0000 C   0  0  0  0  0  4  0  0  0  0  0  0
    1.3271   -3.4526    0.0000 C   0  0  0  0  0  4  0  0  0  0  0  0
    1.9957   -2.3050    0.0000 C   0  0  0  0  0  4  0  0  0  0  0  0
    1.3271   -1.1475    0.0000 C   0  0  0  0  0  4  0  0  0  0  0  0
    0.0000   -1.1475    0.0000 O   0  0  0  0  0  2  0  0  0  0  0  0
    1.9957    0.0000    0.0000 O   0  0  0  0  0  2  0  0  0  0  0  0
    7.9828   -5.7576    0.0000 C   0  0  0  0  0  4  0  0  0  0  0  0
    9.3099   -5.7576    0.0000 C   0  0  0  0  0  4  0  0  0  0  0  0
    9.9785   -4.6101    0.0000 Cl  0  0  0  0  0  1  0  0  0  0  0  0
  1  2  1  0  0  0  0 
  2  3  1  0  0  0  0 
  3  4  1  0  0  0  0 
  4  5  1  0  0  0  0 
  4 17  1  0  0  0  0 
  5  6  2  0  0  0  0 
  5 10  1  0  0  0  0 
  6  7  1  0  0  0  0 
  7  8  2  0  0  0  0 
  8  9  1  0  0  0  0 
  8 11  1  0  0  0  0 
  9 10  2  0  0  0  0 
 11 12  1  0  0  0  0 
 12 13  1  0  0  0  0 
 13 14  1  0  0  0  0 
 14 15  2  0  0  0  0 
 14 16  1  0  0  0  0 
 17 18  1  0  0  0  0 
 18 19  1  0  0  0  0 
M  END
> <CDK Fingerprint>
EAAAAAEAIgAAEgAAQAAACAIAAAAARUEAAAAABEACCQEA4AAAAAAABAAAAAAAkKAAJEACAAIAQgAAIMAEAAFABQgIAEAQAhQAAABCgBCQAAAEAQEAAAAAgBAAAACAACAAQABAIAAAACAAAkAQBAEQABwAhFQQBACAAAAAAjAA

> <ActivityOutcome_CPDBAS_Rat>
active

> <TD50_Rat_mmol>
0.00295

$$$$

  CDK     0721101958

 20 20  0  0  0  0  0  0  0  0999 V2000
    3.4557    0.0000    0.0000 O   0  0  0  0  0  2  0  0  0  0  0  0
    3.4557   -1.3362    0.0000 C   0  0  0  0  0  4  0  0  0  0  0  0
    2.3038   -1.9997    0.0000 C   0  0  0  0  0  4  0  0  0  0  0  0
    1.1519   -1.3362    0.0000 C   0  0  0  0  0  4  0  0  0  0  0  0
    0.0000   -1.9997    0.0000 O   0  0  0  0  0  2  0  0  0  0  0  0
    2.3038   -3.3267    0.0000 N   0  0  0  0  0  3  0  0  0  0  0  0
    1.1519   -3.9902    0.0000 C   0  0  0  0  0  4  0  0  0  0  0  0
    0.0000   -3.3267    0.0000 O   0  0  0  0  0  2  0  0  0  0  0  0
    1.1519   -5.3264    0.0000 C   0  0  0  0  0  4  0  0  0  0  0  0
    0.0000   -5.9899    0.0000 Cl  0  0  0  0  0  1  0  0  0  0  0  0
    2.3038   -5.9899    0.0000 Cl  0  0  0  0  0  1  0  0  0  0  0  0
    4.6076   -1.9997    0.0000 C   0  0  0  0  0  4  0  0  0  0  0  0
    5.7595   -1.3362    0.0000 C   0  0  0  0  0  4  0  0  0  0  0  0
    6.9114   -1.9997    0.0000 C   0  0  0  0  0  4  0  0  0  0  0  0
    6.9114   -3.3267    0.0000 C   0  0  0  0  0  4  0  0  0  0  0  0
    5.7595   -3.9902    0.0000 C   0  0  0  0  0  4  0  0  0  0  0  0
    4.6076   -3.3267    0.0000 C   0  0  0  0  0  4  0  0  0  0  0  0
    8.0633   -3.9902    0.0000 N   0  0  0  0  0  4  0  0  0  0  0  0
    9.2152   -3.3267    0.0000 O   0  0  0  0  0  1  0  0  0  0  0  0
    8.0633   -5.3264    0.0000 O   0  0  0  0  0  2  0  0  0  0  0  0
  2  1  1  6  0  0  0 
  2  3  1  0  0  0  0 
  2 12  1  0  0  0  0 
  3  4  1  0  0  0  0 
  3  6  1  6  0  0  0 
  4  5  1  0  0  0  0 
  6  7  1  0  0  0  0 
  7  8  2  0  0  0  0 
  7  9  1  0  0  0  0 
  9 10  1  0  0  0  0 
  9 11  1  0  0  0  0 
 12 13  2  0  0  0  0 
 12 17  1  0  0  0  0 
 13 14  1  0  0  0  0 
 14 15  2  0  0  0  0 
 15 16  1  0  0  0  0 
 15 18  1  0  0  0  0 
 16 17  2  0  0  0  0 
 18 19  1  0  0  0  0 
 18 20  2  0  0  0  0 
M  CHG  1  18   1
M  CHG  1  19  -1
M  END
> <CDK Fingerprint>
EAAQAgCAIgACGgABQAAACAIIAAAYQSACAEACBAQGCAAA4AAECAAEAAAAAAABGChQEIAOIAAgQwQAANAAAAGABAwMAAAAABQAAhAgAICACAAAQCYAAAAAghAAGBCAACAARABAJAQAgEAgAkCQBAgAgBwAilAxBAAhAQAAAhAA

> <ActivityOutcome_CPDBAS_Rat>
inactive

$$$$

  CDK     0721101958

 18 20  0  0  0  0  0  0  0  0999 V2000
    1.4638    1.4178    0.0000 C   0  0  0  0  0  4  0  0  0  0  0  0
    3.7746    2.7527    0.0000 C   0  0  0  0  0  4  0  0  0  0  0  0
    5.0819    2.4029    0.0000 C   0  0  0  0  0  4  0  0  0  0  0  0
    2.9552    1.8137    0.0000 C   0  0  0  0  0  4  0  0  0  0  0  0
    4.4835    1.4178    0.0000 C   0  0  0  0  0  4  0  0  0  0  0  0
    6.7022    2.8356    0.0000 C   0  0  0  0  0  4  0  0  0  0  0  0
    7.9819    2.0346    0.0000 C   0  0  0  0  0  4  0  0  0  0  0  0
    7.2730    1.0863    0.0000 C   0  0  0  0  0  4  0  0  0  0  0  0
    6.0946    1.6019    0.0000 C   0  0  0  0  0  4  0  0  0  0  0  0
    5.1463    0.3775    0.0000 Cl  0  0  0  0  0  1  0  0  0  0  0  0
    6.3248    4.0140    0.0000 C   0  0  0  0  0  4  0  0  0  0  0  0
    6.9876    5.1003    0.0000 Cl  0  0  0  0  0  1  0  0  0  0  0  0
    5.2844    5.2844    0.0000 Cl  0  0  0  0  0  1  0  0  0  0  0  0
    7.6044    3.8206    0.0000 Cl  0  0  0  0  0  1  0  0  0  0  0  0
    9.2063    2.6422    0.0000 Cl  0  0  0  0  0  1  0  0  0  0  0  0
    7.9819    0.0000    0.0000 Cl  0  0  0  0  0  1  0  0  0  0  0  0
    2.3108    0.5708    0.0000 Cl  0  0  0  0  0  1  0  0  0  0  0  0
    0.0000    2.4581    0.0000 Cl  0  0  0  0  0  1  0  0  0  0  0  0
  2  1  1  0  0  0  0 
  4  1  1  0  0  0  0 
  1 18  1  6  0  0  0 
  3  2  1  0  0  0  0 
  5  3  1  0  0  0  0 
  6  3  1  0  0  0  0 
  5  4  1  0  0  0  0 
  4 17  1  6  0  0  0 
  9  5  1  0  0  0  0 
  7  6  1  0  0  0  0 
 11  6  1  6  0  0  0 
 14  6  1  0  0  0  0 
  8  7  2  0  0  0  0 
 15  7  1  0  0  0  0 
  9  8  1  0  0  0  0 
 16  8  1  0  0  0  0 
  9 11  1  6  0  0  0 
 10  9  1  0  0  0  0 
 12 11  1  0  0  0  0 
 13 11  1  0  0  0  0 
M  END
> <CDK Fingerprint>
QAAAAAAAAAAAAAAgAAQAAAAABsAEQABAEAAAAIUAAABRCNAAAAAAgAAAAAARQgCgEGAADlhQCAAKSABAAAQBAAAFhgQAgABKAAAAQAARgAAAAADAAAAAAEAAQAAAAAQAQgAAAMBAAAAAAAAAEAAAAAAwAAGCCAAAAABAAAAAIA==

> <ActivityOutcome_CPDBAS_Rat>
inactive

$$$$

  CDK     0721101958

 19 20  0  0  0  0  0  0  0  0999 V2000
    5.3611    3.4834    0.0000 C   0  0  0  0  0  4  0  0  0  0  0  0
    5.3611    2.0834    0.0000 C   0  0  0  0  0  4  0  0  0  0  0  0
    3.8882    4.3327    0.0000 C   0  0  0  0  0  4  0  0  0  0  0  0
    3.8882    2.7137    0.0000 C   0  0  0  0  0  4  0  0  0  0  0  0
    2.4152    3.4834    0.0000 C   0  0  0  0  0  4  0  0  0  0  0  0
    2.4152    2.0900    0.0000 C   0  0  0  0  0  4  0  0  0  0  0  0
    3.3773    5.7659    0.0000 C   0  0  0  0  0  4  0  0  0  0  0  0
    1.2076    1.3934    0.0000 C   0  0  0  0  0  4  0  0  0  0  0  0
    1.2076    4.1801    0.0000 C   0  0  0  0  0  4  0  0  0  0  0  0
    1.2076    0.0000    0.0000 O   0  0  0  0  0  2  0  0  0  0  0  0
    0.0000    2.0900    0.0000 O   0  0  0  0  0  2  0  0  0  0  0  0
    1.2076    5.5735    0.0000 O   0  0  0  0  0  2  0  0  0  0  0  0
    0.0000    3.4834    0.0000 O   0  0  0  0  0  2  0  0  0  0  0  0
    6.5754    1.3801    0.0000 Cl  0  0  0  0  0  1  0  0  0  0  0  0
    6.5754    4.1867    0.0000 Cl  0  0  0  0  0  1  0  0  0  0  0  0
    4.4256    6.6351    0.0000 Cl  0  0  0  0  0  1  0  0  0  0  0  0
    2.0967    6.2436    0.0000 Cl  0  0  0  0  0  1  0  0  0  0  0  0
    3.4967    1.2806    0.0000 Cl  0  0  0  0  0  1  0  0  0  0  0  0
    4.6665    5.2689    0.0000 Cl  0  0  0  0  0  1  0  0  0  0  0  0
  2  1  2  0  0  0  0 
  3  1  1  0  0  0  0 
 15  1  1  0  0  0  0 
  4  2  1  0  0  0  0 
 14  2  1  0  0  0  0 
  5  3  1  0  0  0  0 
  7  3  1  0  0  0  0 
  3 19  1  6  0  0  0 
  6  4  1  0  0  0  0 
  4  7  1  0  0  0  0 
  4 18  1  1  0  0  0 
  6  5  1  0  0  0  0 
  5  9  1  1  0  0  0 
  6  8  1  1  0  0  0 
 16  7  1  0  0  0  0 
 17  7  1  0  0  0  0 
 10  8  2  0  0  0  0 
 11  8  1  0  0  0  0 
 12  9  2  0  0  0  0 
 13  9  1  0  0  0  0 
M  END
> <CDK Fingerprint>
QAAAAAEAAAQgAAIRAAAAEABIAsAMQABAEYAAAIgAAIUBCPAAAAIAgEAAAAATQBCoMKIADk1QIIAaSyBAQAABAAADpAQggABqABBAQAARgRAAAADAAQAAAAAQYAAAAAQAQkAAAOBAACAABAAAEAQBAAAwAADYGAAAAABABAAAIA==

> <ActivityOutcome_CPDBAS_Rat>
active

> <TD50_Rat_mmol>
0.105

$$$$

  CDK     0721101958

 15 16  0  0  0  0  0  0  0  0999 V2000
    9.2080   -2.6611    0.0000 N   0  0  0  0  0  3  0  0  0  0  0  0
    8.0570   -1.9981    0.0000 C   0  0  0  0  0  4  0  0  0  0  0  0
    6.9060   -2.6611    0.0000 C   0  0  0  0  0  4  0  0  0  0  0  0
    5.7550   -1.9981    0.0000 C   0  0  0  0  0  4  0  0  0  0  0  0
    5.7550   -0.6630    0.0000 C   0  0  0  0  0  4  0  0  0  0  0  0
    6.9060    0.0000    0.0000 C   0  0  0  0  0  4  0  0  0  0  0  0
    8.0570   -0.6630    0.0000 C   0  0  0  0  0  4  0  0  0  0  0  0
    4.6040    0.0000    0.0000 O   0  0  0  0  0  2  0  0  0  0  0  0
    3.4530   -0.6630    0.0000 C   0  0  0  0  0  4  0  0  0  0  0  0
    3.4530   -1.9981    0.0000 C   0  0  0  0  0  4  0  0  0  0  0  0
    2.3020   -2.6611    0.0000 C   0  0  0  0  0  4  0  0  0  0  0  0
    1.1510   -1.9981    0.0000 C   0  0  0  0  0  4  0  0  0  0  0  0
    1.1510   -0.6630    0.0000 C   0  0  0  0  0  4  0  0  0  0  0  0
    2.3020    0.0000    0.0000 C   0  0  0  0  0  4  0  0  0  0  0  0
    0.0000   -2.6611    0.0000 Cl  0  0  0  0  0  1  0  0  0  0  0  0
  1  2  1  0  0  0  0 
  2  3  2  0  0  0  0 
  2  7  1  0  0  0  0 
  3  4  1  0  0  0  0 
  4  5  2  0  0  0  0 
  5  6  1  0  0  0  0 
  5  8  1  0  0  0  0 
  6  7  2  0  0  0  0 
  8  9  1  0  0  0  0 
  9 10  2  0  0  0  0 
  9 14  1  0  0  0  0 
 10 11  1  0  0  0  0 
 11 12  2  0  0  0  0 
 12 13  1  0  0  0  0 
 12 15  1  0  0  0  0 
 13 14  2  0  0  0  0 
M  END
> <CDK Fingerprint>
IACAAgAAAAAAAAAAAoAAQIAAAAAABAACAAAC4UAAAAQQAAAAAAAAACgAACAAAAAAYAAAAAAAAAEAApQAAAAAAAAAAAQAAACAAAEAAAAAAAABAQIAAAAAACAAAAGAICQgAAACEgAAAAAAAAAAgAAAAAAAAAAAIhAA

> <ActivityOutcome_CPDBAS_Rat>
active

> <TD50_Rat_mmol>
0.171

$$$$

  CDK     0721101958

 11 11  0  0  0  0  0  0  0  0999 V2000
    4.3388   -2.3406    0.0000 O   0  0  0  0  0  2  0  0  0  0  0  0
    3.5569   -3.4189    0.0000 C   0  0  0  0  0  4  0  0  0  0  0  0
    3.5569   -1.2674    0.0000 C   0  0  0  0  0  4  0  0  0  0  0  0
    2.2895   -3.0050    0.0000 C   0  0  0  0  0  4  0  0  0  0  0  0
    2.2895   -1.6762    0.0000 C   0  0  0  0  0  4  0  0  0  0  0  0
    3.9657    0.0000    0.0000 O   0  0  0  0  0  2  0  0  0  0  0  0
    1.2163   -0.8943    0.0000 Cl  0  0  0  0  0  1  0  0  0  0  0  0
    1.2163   -3.7869    0.0000 C   0  0  0  0  0  4  0  0  0  0  0  0
    0.0000   -3.2452    0.0000 Cl  0  0  0  0  0  1  0  0  0  0  0  0
    1.3543   -5.1105    0.0000 Cl  0  0  0  0  0  1  0  0  0  0  0  0
    3.9657   -4.6812    0.0000 O   0  0  0  0  0  2  0  0  0  0  0  0
  1  2  1  0  0  0  0 
  1  3  1  0  0  0  0 
  2  4  1  0  0  0  0 
  2 11  1  0  0  0  0 
  3  5  1  0  0  0  0 
  3  6  2  0  0  0  0 
  4  5  2  0  0  0  0 
  4  8  1  0  0  0  0 
  5  7  1  0  0  0  0 
  8  9  1  0  0  0  0 
  8 10  1  0  0  0  0 
M  END
> <CDK Fingerprint>
AMCAAQAAAABAAAADAAQAABAAAAAAAAAAgAIAAIKAgAAAAADwCIAAAAAABAAAAABwIAIAAA4QEAAACEAAQAAAAQAAAAgAQIAAIAAAAAAAAQAAAAAAYAAAQBQAMQAAAAAAAABIQIgAAAAAAAAAAAAAAAEAKIAAcAgAAAAAAAAAACA=

> <ActivityOutcome_CPDBAS_Rat>
active

> <TD50_Rat_mmol>
0.00268

$$$$

  CDK     0721101958

 21 22  0  0  0  0  0  0  0  0999 V2000
    1.1685   -1.8218    0.0000 C   0  0  0  0  0  4  0  0  0  0  0  0
    1.1685   -3.1559    0.0000 C   0  0  0  0  0  4  0  0  0  0  0  0
    2.3094   -3.8276    0.0000 C   0  0  0  0  0  4  0  0  0  0  0  0
    3.4595   -3.1559    0.0000 C   0  0  0  0  0  4  0  0  0  0  0  0
    3.4595   -1.8218    0.0000 N   0  0  0  0  0  3  0  0  0  0  0  0
    2.3094   -1.1501    0.0000 C   0  0  0  0  0  4  0  0  0  0  0  0
    0.0000   -1.1685    0.0000 C   0  0  0  0  0  4  0  0  0  0  0  0
    2.2910   -5.1617    0.0000 C   0  0  0  0  0  4  0  0  0  0  0  0
    4.6004   -1.1501    0.0000 S   0  0  0  0  0  6  0  0  0  0  0  0
    5.7505   -1.8218    0.0000 C   0  0  0  0  0  4  0  0  0  0  0  0
    3.9288    0.0000    0.0000 O   0  0  0  0  0  2  0  0  0  0  0  0
    5.2721    0.0000    0.0000 O   0  0  0  0  0  2  0  0  0  0  0  0
    5.7505   -3.1559    0.0000 C   0  0  0  0  0  4  0  0  0  0  0  0
    6.8914   -3.8092    0.0000 C   0  0  0  0  0  4  0  0  0  0  0  0
    8.0507   -3.1559    0.0000 C   0  0  0  0  0  4  0  0  0  0  0  0
    8.0507   -1.8218    0.0000 C   0  0  0  0  0  4  0  0  0  0  0  0
    6.9098   -1.1685    0.0000 C   0  0  0  0  0  4  0  0  0  0  0  0
    6.8914   -5.1433    0.0000 C   0  0  0  0  0  4  0  0  0  0  0  0
    5.7229   -5.7965    0.0000 O   0  0  0  0  0  2  0  0  0  0  0  0
    8.0323   -5.8149    0.0000 O   0  0  0  0  0  2  0  0  0  0  0  0
    9.2008   -3.8276    0.0000 Cl  0  0  0  0  0  1  0  0  0  0  0  0
  1  7  1  1  0  0  0 
  1  2  1  0  0  0  0 
  1  6  1  0  0  0  0 
  2  3  1  0  0  0  0 
  3  4  1  0  0  0  0 
  3  8  1  1  0  0  0 
  4  5  1  0  0  0  0 
  5  6  1  0  0  0  0 
  5  9  1  0  0  0  0 
  9 11  2  0  0  0  0 
  9 12  2  0  0  0  0 
  9 10  1  0  0  0  0 
 10 13  2  0  0  0  0 
 10 17  1  0  0  0  0 
 13 14  1  0  0  0  0 
 14 15  2  0  0  0  0 
 14 18  1  0  0  0  0 
 15 16  1  0  0  0  0 
 15 21  1  0  0  0  0 
 16 17  2  0  0  0  0 
 18 19  2  0  0  0  0 
 18 20  1  0  0  0  0 
M  END
> <CDK Fingerprint>
BASQACBAACACAIASgAEQAAQBAAQAABIAFAAAUAAgAQAAAQnoQAQADgIAAIAABQCCIABQACCQACBAKAAI4FCBIQAEAIAAAB1AAEAACCQEAIAAACADoABAAAGBFAQAAJABIABBAMAhBAIMABAyQBAAKAiAAAGB8ChgAQEEQACGAAA=

> <ActivityOutcome_CPDBAS_Rat>
active

> <TD50_Rat_mmol>
0.0146

$$$$

  CDK     0721101958

 13 13  0  0  0  0  0  0  0  0999 V2000
    5.7563    0.0000    0.0000 Cl  0  0  0  0  0  1  0  0  0  0  0  0
    4.6092   -0.6634    0.0000 C   0  0  0  0  0  4  0  0  0  0  0  0
    4.6092   -1.9902    0.0000 C   0  0  0  0  0  4  0  0  0  0  0  0
    3.4552   -2.6605    0.0000 C   0  0  0  0  0  4  0  0  0  0  0  0
    2.3011   -1.9902    0.0000 C   0  0  0  0  0  4  0  0  0  0  0  0
    2.3011   -0.6634    0.0000 C   0  0  0  0  0  4  0  0  0  0  0  0
    3.4552    0.0000    0.0000 C   0  0  0  0  0  4  0  0  0  0  0  0
    1.1540   -2.6605    0.0000 N   0  0  0  0  0  4  0  0  0  0  0  0
    1.1540   -3.9873    0.0000 O   0  0  0  0  0  2  0  0  0  0  0  0
    0.0000   -1.9902    0.0000 O   0  0  0  0  0  1  0  0  0  0  0  0
    5.7563   -2.6605    0.0000 N   0  0  0  0  0  4  0  0  0  0  0  0
    5.7563   -3.9873    0.0000 O   0  0  0  0  0  2  0  0  0  0  0  0
    6.9103   -1.9902    0.0000 O   0  0  0  0  0  1  0  0  0  0  0  0
  1  2  1  0  0  0  0 
  2  3  2  0  0  0  0 
  2  7  1  0  0  0  0 
  3  4  1  0  0  0  0 
  3 11  1  0  0  0  0 
  4  5  2  0  0  0  0 
  5  6  1  0  0  0  0 
  5  8  1  0  0  0  0 
  6  7  2  0  0  0  0 
  8  9  2  0  0  0  0 
  8 10  1  0  0  0  0 
 11 12  2  0  0  0  0 
 11 13  1  0  0  0  0 
M  CHG  1   8   1
M  CHG  1  10  -1
M  CHG  1  11   1
M  CHG  1  13  -1
M  END
> <CDK Fingerprint>
EAIAACAAAEgAAAAEAAgAAAAAGEAAQAAAAAQABgAAAOABBAAAAAAAAAAgAAAgAAQAAgAAAEAEAAQAAAABAAAAAAAAQACAgAAAAAiAAQAAACAAACAAEQEAAAAQAAAgAAQAgCAEAABAIBIAAAAAAAEAAIAABBAAAAAAQAIQAA==

> <ActivityOutcome_CPDBAS_Rat>
inactive

$$$$

  CDK     0721101958

  5  4  0  0  0  0  0  0  0  0999 V2000
    3.4567   -1.9945    0.0000 C   0  0  0  0  0  4  0  0  0  0  0  0
    2.3056   -1.3308    0.0000 C   0  0  0  0  0  4  0  0  0  0  0  0
    2.3056    0.0000    0.0000 C   0  0  0  0  0  4  0  0  0  0  0  0
    1.1511   -1.9945    0.0000 C   0  0  0  0  0  4  0  0  0  0  0  0
    0.0000   -1.3308    0.0000 Cl  0  0  0  0  0  1  0  0  0  0  0  0
  1  2  1  0  0  0  0 
  2  3  2  0  0  0  0 
  2  4  1  0  0  0  0 
  4  5  1  0  0  0  0 
M  END
> <CDK Fingerprint>
QAAAAAAAAAAAAAAAAAAAAAAAAAAAAAAAAAAAAIAAAAAAAMAAAAAAAAAAAAAAAAAgAAAAAgAQAAAAAABAAAABAAAAAAAAgAAAAAAAAAAAAAAAAAAAAAAAAAAAAAAAAAAAAAAAAAAAAAAAAAAAAAAAAAAAAAAAAAAAAAAAAAAAAA==

> <ActivityOutcome_CPDBAS_Rat>
active

> <TD50_Rat_mmol>
1.25

$$$$

  CDK     0721101958

 10 10  0  0  0  0  0  0  0  0999 V2000
    2.6582    0.0000    0.0000 Cl  0  0  0  0  0  1  0  0  0  0  0  0
    1.9971   -1.1499    0.0000 C   0  0  0  0  0  4  0  0  0  0  0  0
    2.6582   -2.3044    0.0000 C   0  0  0  0  0  4  0  0  0  0  0  0
    1.9971   -3.4542    0.0000 C   0  0  0  0  0  4  0  0  0  0  0  0
    0.6657   -3.4542    0.0000 C   0  0  0  0  0  4  0  0  0  0  0  0
    0.0000   -2.3044    0.0000 C   0  0  0  0  0  4  0  0  0  0  0  0
    0.6657   -1.1499    0.0000 C   0  0  0  0  0  4  0  0  0  0  0  0
    3.9896   -2.3044    0.0000 N   0  0  0  0  0  4  0  0  0  0  0  0
    4.6553   -1.1499    0.0000 O   0  0  0  0  0  2  0  0  0  0  0  0
    4.6553   -3.4542    0.0000 O   0  0  0  0  0  1  0  0  0  0  0  0
  1  2  1  0  0  0  0 
  2  3  2  0  0  0  0 
  2  7  1  0  0  0  0 
  3  4  1  0  0  0  0 
  3  8  1  0  0  0  0 
  4  5  2  0  0  0  0 
  5  6  1  0  0  0  0 
  6  7  2  0  0  0  0 
  8  9  2  0  0  0  0 
  8 10  1  0  0  0  0 
M  CHG  1   8   1
M  CHG  1  10  -1
M  END
> <CDK Fingerprint>
EAIAACAAAEgAAAAAAAgAAAAAGEAAAAAAAAQABgAAAOAABAAAAAAAAAAAAAAgAAAAAgAAAEAEAAQAAAABAAAAAAAAAAAAgAAAAACAAAAAACAAAAAAAQEAAAAQAAAgAAQAgCAEAABAIAIAAAAAAAEAAIAAAAAAAAAAQAIQAA==

> <ActivityOutcome_CPDBAS_Rat>
inactive

$$$$

  CDK     0721101958

 10 10  0  0  0  0  0  0  0  0999 V2000
    0.0000   -2.3031    0.0000 O   0  0  0  0  0  2  0  0  0  0  0  0
    0.6640   -1.1546    0.0000 N   0  0  0  0  0  4  0  0  0  0  0  0
    1.9921   -1.1546    0.0000 C   0  0  0  0  0  4  0  0  0  0  0  0
    2.6561    0.0000    0.0000 C   0  0  0  0  0  4  0  0  0  0  0  0
    3.9901    0.0000    0.0000 C   0  0  0  0  0  4  0  0  0  0  0  0
    4.6542   -1.1546    0.0000 C   0  0  0  0  0  4  0  0  0  0  0  0
    3.9901   -2.3031    0.0000 C   0  0  0  0  0  4  0  0  0  0  0  0
    2.6561   -2.3031    0.0000 C   0  0  0  0  0  4  0  0  0  0  0  0
    5.9822   -1.1546    0.0000 Cl  0  0  0  0  0  1  0  0  0  0  0  0
    0.0000    0.0000    0.0000 O   0  0  0  0  0  1  0  0  0  0  0  0
  1  2  2  0  0  0  0 
  2  3  1  0  0  0  0 
  2 10  1  0  0  0  0 
  3  4  2  0  0  0  0 
  3  8  1  0  0  0  0 
  4  5  1  0  0  0  0 
  5  6  2  0  0  0  0 
  6  7  1  0  0  0  0 
  6  9  1  0  0  0  0 
  7  8  2  0  0  0  0 
M  CHG  1   2   1
M  CHG  1  10  -1
M  END
> <CDK Fingerprint>
EAIAACAAAAgAAAAAAAgAAAAAGEAAAAAAAAQABgAAAOAABAAAAAAAAAAgAAAgAAQAAgAAAEAEAAAAAAABAAAAAAAAAAAAAAAAAACAAAAAAAAAAAAAAQEAAAAQAAAgAAQAgCAEAABAIBIAAAAAAAAAAIAAAAAAAAAAAAIQAA==

> <ActivityOutcome_CPDBAS_Rat>
inactive

$$$$

  CDK     0721101958

  9  9  0  0  0  0  0  0  0  0999 V2000
    0.0000   -2.6589    0.0000 N   0  0  0  0  0  3  0  0  0  0  0  0
    1.1520   -1.9953    0.0000 C   0  0  0  0  0  4  0  0  0  0  0  0
    1.1520   -0.6636    0.0000 C   0  0  0  0  0  4  0  0  0  0  0  0
    2.3041    0.0000    0.0000 C   0  0  0  0  0  4  0  0  0  0  0  0
    3.4561   -0.6636    0.0000 C   0  0  0  0  0  4  0  0  0  0  0  0
    3.4561   -1.9953    0.0000 C   0  0  0  0  0  4  0  0  0  0  0  0
    2.3041   -2.6589    0.0000 C   0  0  0  0  0  4  0  0  0  0  0  0
    4.6082   -2.6589    0.0000 N   0  0  0  0  0  3  0  0  0  0  0  0
    0.0000    0.0000    0.0000 Cl  0  0  0  0  0  1  0  0  0  0  0  0
  1  2  1  0  0  0  0 
  2  3  2  0  0  0  0 
  2  7  1  0  0  0  0 
  3  4  1  0  0  0  0 
  3  9  1  0  0  0  0 
  4  5  2  0  0  0  0 
  5  6  1  0  0  0  0 
  6  7  2  0  0  0  0 
  6  8  1  0  0  0  0 
M  END
> <CDK Fingerprint>
IAAAQAAAAAQAAAAAAAAAQAAAAAAABAACAAAA4AAAAAAAAAAAAAAAACAAAAAAAAAAQAAABAAAAAEAAAAAAAAAAAAAAAAAAAAAAAAAAAAAAAABAQAAAAAAACAAAACAIAQAAAAAEgAAAAAAAAAAgAAAEAAAAAAAAhAA

> <ActivityOutcome_CPDBAS_Rat>
active

> <TD50_Rat_mmol>
2.21

$$$$

  CDK     0721101958

  9  9  0  0  0  0  0  0  0  0999 V2000
    0.0000   -2.6589    0.0000 N   0  0  0  0  0  3  0  0  0  0  0  0
    1.1520   -1.9953    0.0000 C   0  0  0  0  0  4  0  0  0  0  0  0
    1.1520   -0.6636    0.0000 C   0  0  0  0  0  4  0  0  0  0  0  0
    2.3041    0.0000    0.0000 C   0  0  0  0  0  4  0  0  0  0  0  0
    3.4561   -0.6636    0.0000 C   0  0  0  0  0  4  0  0  0  0  0  0
    3.4561   -1.9953    0.0000 C   0  0  0  0  0  4  0  0  0  0  0  0
    2.3041   -2.6589    0.0000 C   0  0  0  0  0  4  0  0  0  0  0  0
    4.6082   -2.6589    0.0000 Cl  0  0  0  0  0  1  0  0  0  0  0  0
    0.0000    0.0000    0.0000 N   0  0  0  0  0  3  0  0  0  0  0  0
  1  2  1  0  0  0  0 
  2  3  2  0  0  0  0 
  2  7  1  0  0  0  0 
  3  4  1  0  0  0  0 
  3  9  1  0  0  0  0 
  4  5  2  0  0  0  0 
  5  6  1  0  0  0  0 
  6  7  2  0  0  0  0 
  6  8  1  0  0  0  0 
M  END
> <CDK Fingerprint>
CAAAAAAAACgAAAAAAAAAAAAAAAAAAEAAAAAAAAQAAgAAAOAAAAAAAAAAAAAAAAAgAAAAAAAAAEAAAAAAAAABAAAAAAAAAAAAAAAAAAAAAAAIAAAAAAAAAQEAAAAAAAAgAAAAgCAEAAAAABIAAAAAAAAAAIAAAAAAAAAAAAIQAA==

> <ActivityOutcome_CPDBAS_Rat>
active

> <TD50_Rat_mmol>
1.5

$$$$

  CDK     0721101958

  9  9  0  0  0  0  0  0  0  0999 V2000
    0.0000   -2.6589    0.0000 Cl  0  0  0  0  0  1  0  0  0  0  0  0
    1.1520   -1.9953    0.0000 C   0  0  0  0  0  4  0  0  0  0  0  0
    1.1520   -0.6636    0.0000 C   0  0  0  0  0  4  0  0  0  0  0  0
    2.3041    0.0000    0.0000 C   0  0  0  0  0  4  0  0  0  0  0  0
    3.4561   -0.6636    0.0000 C   0  0  0  0  0  4  0  0  0  0  0  0
    3.4561   -1.9953    0.0000 C   0  0  0  0  0  4  0  0  0  0  0  0
    2.3041   -2.6589    0.0000 C   0  0  0  0  0  4  0  0  0  0  0  0
    4.6082   -2.6589    0.0000 N   0  0  0  0  0  3  0  0  0  0  0  0
    0.0000    0.0000    0.0000 C   0  0  0  0  0  4  0  0  0  0  0  0
  1  2  1  0  0  0  0 
  2  3  2  0  0  0  0 
  2  7  1  0  0  0  0 
  3  4  1  0  0  0  0 
  3  9  1  0  0  0  0 
  4  5  2  0  0  0  0 
  5  6  1  0  0  0  0 
  6  7  2  0  0  0  0 
  6  8  1  0  0  0  0 
M  END
> <CDK Fingerprint>
CAAAAAAAACAAABAAAAAAAAAAAAAAAEEAAAAAAAQAAgAAAOAAAAAAAAAAAAAAAAAgAAAAAAAAAEAAAAgAAAABAAQAAAAAAAAAAAAAAAAAAAAIAAAAAAAAAYEAAAAAgAAgAAAAwCAEAAAAAAJAAAAAAAAAAIAAAAAAAAAAAAIQAA==

> <ActivityOutcome_CPDBAS_Rat>
inactive

$$$$

  CDK     0721101958

  9  9  0  0  0  0  0  0  0  0999 V2000
    4.6082   -2.6589    0.0000 N   0  0  0  0  0  3  0  0  0  0  0  0
    3.4561   -1.9953    0.0000 C   0  0  0  0  0  4  0  0  0  0  0  0
    2.3041   -2.6589    0.0000 C   0  0  0  0  0  4  0  0  0  0  0  0
    1.1520   -1.9953    0.0000 C   0  0  0  0  0  4  0  0  0  0  0  0
    1.1520   -0.6636    0.0000 C   0  0  0  0  0  4  0  0  0  0  0  0
    2.3041    0.0000    0.0000 C   0  0  0  0  0  4  0  0  0  0  0  0
    3.4561   -0.6636    0.0000 C   0  0  0  0  0  4  0  0  0  0  0  0
    4.6082    0.0000    0.0000 C   0  0  0  0  0  4  0  0  0  0  0  0
    0.0000   -2.6589    0.0000 Cl  0  0  0  0  0  1  0  0  0  0  0  0
  1  2  1  0  0  0  0 
  2  3  2  0  0  0  0 
  2  7  1  0  0  0  0 
  3  4  1  0  0  0  0 
  4  5  2  0  0  0  0 
  4  9  1  0  0  0  0 
  5  6  1  0  0  0  0 
  6  7  2  0  0  0  0 
  7  8  1  0  0  0  0 
M  END
> <CDK Fingerprint>
CAAAAAAAACIAAAAAAAAAAAAAAAAAAEAAAAAAAAQAAgAAAOAAAAAAAAAAAAAAAABgAAAAAAAAAEAAAAAAAAABAAQAAAAAAAAAAAAAAAAAAAAIAAAAAAAAAYEAAAAAgAAgAAAAwCAEAAAAAQJAAAAAAAAAAIAAAAAAAAAAAAIQAA==

> <ActivityOutcome_CPDBAS_Rat>
inactive

$$$$

  CDK     0721101958

  6  5  0  0  0  0  0  0  0  0999 V2000
    1.1503   -1.1537    0.0000 C   0  0  0  0  0  4  0  0  0  0  0  0
    2.3040   -0.4870    0.0000 C   0  0  0  0  0  4  0  0  0  0  0  0
    3.4542   -1.1537    0.0000 Cl  0  0  0  0  0  1  0  0  0  0  0  0
    1.8169   -2.3040    0.0000 F   0  0  0  0  0  1  0  0  0  0  0  0
    0.0000   -1.8169    0.0000 F   0  0  0  0  0  1  0  0  0  0  0  0
    0.4870    0.0000    0.0000 F   0  0  0  0  0  1  0  0  0  0  0  0
  1  2  1  0  0  0  0 
  1  4  1  0  0  0  0 
  1  5  1  0  0  0  0 
  1  6  1  0  0  0  0 
  2  3  1  0  0  0  0 
M  END
> <CDK Fingerprint>
MAAAwAAAAAAgAAAAAAAAACAAAAACAAAAAAAAAAAAAAEAAAAAAACAAAAAAAAAAAAAAAAAAAAAAAAAAAAAAAAAAAAAAAAAAAAAAAAAAAAAAAAAAAAAAAAAAAAAAAAAAAAA

> <ActivityOutcome_CPDBAS_Rat>
active

> <TD50_Rat_mmol>
0.737

$$$$

  CDK     0721101958

 21 22  0  0  0  0  0  0  0  0999 V2000
    5.7698    0.0000    0.0000 Cl  0  0  0  0  0  1  0  0  0  0  0  0
    5.7698   -1.3315    0.0000 C   0  0  0  0  0  4  0  0  0  0  0  0
    6.9111   -2.0036    0.0000 C   0  0  0  0  0  4  0  0  0  0  0  0
    6.9111   -3.3351    0.0000 C   0  0  0  0  0  4  0  0  0  0  0  0
    5.7698   -3.9945    0.0000 N   0  0  0  0  0  3  0  0  0  0  0  0
    4.6158   -3.3351    0.0000 C   0  0  0  0  0  4  0  0  0  0  0  0
    4.6158   -2.0036    0.0000 N   0  0  0  0  0  3  0  0  0  0  0  0
    3.4619   -3.9945    0.0000 S   0  0  0  0  0  2  0  0  0  0  0  0
    2.3079   -3.3351    0.0000 C   0  0  0  0  0  4  0  0  0  0  0  0
    1.1540   -3.9945    0.0000 C   0  0  0  0  0  4  0  0  0  0  0  0
    1.1540   -5.3260    0.0000 O   0  0  0  0  0  2  0  0  0  0  0  0
    0.0000   -3.3351    0.0000 O   0  0  0  0  0  2  0  0  0  0  0  0
    8.0650   -3.9945    0.0000 N   0  0  0  0  0  3  0  0  0  0  0  0
    9.2190   -3.3351    0.0000 C   0  0  0  0  0  4  0  0  0  0  0  0
    9.2190   -2.0036    0.0000 C   0  0  0  0  0  4  0  0  0  0  0  0
   10.3730   -1.3315    0.0000 C   0  0  0  0  0  4  0  0  0  0  0  0
   11.5269   -2.0036    0.0000 C   0  0  0  0  0  4  0  0  0  0  0  0
   11.5269   -3.3351    0.0000 C   0  0  0  0  0  4  0  0  0  0  0  0
   10.3730   -3.9945    0.0000 C   0  0  0  0  0  4  0  0  0  0  0  0
   10.3730   -5.3260    0.0000 C   0  0  0  0  0  4  0  0  0  0  0  0
   12.6809   -3.9945    0.0000 C   0  0  0  0  0  4  0  0  0  0  0  0
  1  2  1  0  0  0  0 
  2  3  2  0  0  0  0 
  2  7  1  0  0  0  0 
  3  4  1  0  0  0  0 
  4  5  2  0  0  0  0 
  4 13  1  0  0  0  0 
  5  6  1  0  0  0  0 
  6  7  2  0  0  0  0 
  6  8  1  0  0  0  0 
  8  9  1  0  0  0  0 
  9 10  1  0  0  0  0 
 10 11  2  0  0  0  0 
 10 12  1  0  0  0  0 
 13 14  1  0  0  0  0 
 14 15  2  0  0  0  0 
 14 19  1  0  0  0  0 
 15 16  1  0  0  0  0 
 16 17  2  0  0  0  0 
 17 18  1  0  0  0  0 
 18 19  2  0  0  0  0 
 18 21  1  0  0  0  0 
 19 20  1  0  0  0  0 
M  END
> <CDK Fingerprint>
AgkAA8CRKgQiAABOQAapAQcgFAACAABShgAAAkAETAJAAAHoDAARBAAAACIEAAoAYgAEAAIiBwFKJQII0AUAAUEFAAgGIIAAAEAIgQBgAAAAIASAkBGgAGDGEQAIGICIIKFAAsCwAhJABCACwAChRAIgAAChcCISAIAECEoCkBM=

> <ActivityOutcome_CPDBAS_Rat>
active

> <TD50_Rat_mmol>
0.0135

$$$$

  CDK     0721101958

 24 25  0  0  0  0  0  0  0  0999 V2000
   10.3662   -3.3262    0.0000 C   0  0  0  0  0  4  0  0  0  0  0  0
   11.5126   -3.9882    0.0000 N   0  0  0  0  0  3  0  0  0  0  0  0
    9.2036   -3.9882    0.0000 N   0  0  0  0  0  3  0  0  0  0  0  0
   10.3662   -2.0022    0.0000 C   0  0  0  0  0  4  0  0  0  0  0  0
   12.6751   -3.3262    0.0000 C   0  0  0  0  0  4  0  0  0  0  0  0
    8.0733   -3.3262    0.0000 C   0  0  0  0  0  4  0  0  0  0  0  0
    9.2036   -1.3240    0.0000 C   0  0  0  0  0  4  0  0  0  0  0  0
   13.8215   -3.9882    0.0000 C   0  0  0  0  0  4  0  0  0  0  0  0
   12.6751   -2.0022    0.0000 C   0  0  0  0  0  4  0  0  0  0  0  0
    8.0733   -2.0022    0.0000 N   0  0  0  0  0  3  0  0  0  0  0  0
    6.9269   -3.9882    0.0000 S   0  0  0  0  0  2  0  0  0  0  0  0
    9.2036    0.0000    0.0000 Cl  0  0  0  0  0  1  0  0  0  0  0  0
   15.0003   -3.3262    0.0000 C   0  0  0  0  0  4  0  0  0  0  0  0
   13.8215   -5.3123    0.0000 C   0  0  0  0  0  4  0  0  0  0  0  0
   13.8215   -1.3240    0.0000 C   0  0  0  0  0  4  0  0  0  0  0  0
    5.7482   -3.3262    0.0000 C   0  0  0  0  0  4  0  0  0  0  0  0
   15.0003   -2.0022    0.0000 C   0  0  0  0  0  4  0  0  0  0  0  0
   16.1467   -3.9882    0.0000 C   0  0  0  0  0  4  0  0  0  0  0  0
    4.6018   -3.9882    0.0000 C   0  0  0  0  0  4  0  0  0  0  0  0
    3.4392   -3.3262    0.0000 N   0  0  0  0  0  3  0  0  0  0  0  0
    4.6018   -5.3123    0.0000 O   0  0  0  0  0  2  0  0  0  0  0  0
    2.2928   -4.0044    0.0000 C   0  0  0  0  0  4  0  0  0  0  0  0
    1.1464   -3.3424    0.0000 C   0  0  0  0  0  4  0  0  0  0  0  0
    0.0000   -4.0044    0.0000 O   0  0  0  0  0  2  0  0  0  0  0  0
  1  2  1  0  0  0  0 
  1  3  1  0  0  0  0 
  1  4  2  0  0  0  0 
  2  5  1  0  0  0  0 
  3  6  2  0  0  0  0 
  4  7  1  0  0  0  0 
  5  8  1  0  0  0  0 
  5  9  2  0  0  0  0 
  6 10  1  0  0  0  0 
  6 11  1  0  0  0  0 
  7 12  1  0  0  0  0 
  7 10  2  0  0  0  0 
  8 13  2  0  0  0  0 
  8 14  1  0  0  0  0 
  9 15  1  0  0  0  0 
 11 16  1  0  0  0  0 
 13 17  1  0  0  0  0 
 13 18  1  0  0  0  0 
 15 17  2  0  0  0  0 
 16 19  1  0  0  0  0 
 19 20  1  0  0  0  0 
 19 21  2  0  0  0  0 
 20 22  1  0  0  0  0 
 22 23  1  0  0  0  0 
 23 24  1  0  0  0  0 
M  END
> <CDK Fingerprint>
AgkQA8CRLgQiAAhOQAapAQcgFAACAABShgAAQkAkTAJAAAHoDAABBAAAACIEAAMIYgQEAAIjBwFKNwII0AUAAdEFAAgWIIAAAEAIkQAgAIAAIATAkBHgAGDGEQAIGICIICFAAtCgAhJABCACwgChRAIgAACh8CcSAIAECEoC0BM=

> <ActivityOutcome_CPDBAS_Rat>
active

> <TD50_Rat_mmol>
0.0177

$$$$

  CDK     0721101958

 10 10  0  0  0  0  0  0  0  0999 V2000
    4.6545   -3.4536    0.0000 O   0  0  0  0  0  2  0  0  0  0  0  0
    3.9889   -2.3040    0.0000 C   0  0  0  0  0  4  0  0  0  0  0  0
    2.6577   -2.3040    0.0000 C   0  0  0  0  0  4  0  0  0  0  0  0
    1.9968   -3.4536    0.0000 C   0  0  0  0  0  4  0  0  0  0  0  0
    0.6656   -3.4536    0.0000 C   0  0  0  0  0  4  0  0  0  0  0  0
    0.0000   -2.3040    0.0000 C   0  0  0  0  0  4  0  0  0  0  0  0
    0.6656   -1.1497    0.0000 C   0  0  0  0  0  4  0  0  0  0  0  0
    1.9968   -1.1497    0.0000 C   0  0  0  0  0  4  0  0  0  0  0  0
    4.6545   -1.1497    0.0000 C   0  0  0  0  0  4  0  0  0  0  0  0
    3.9889    0.0000    0.0000 Cl  0  0  0  0  0  1  0  0  0  0  0  0
  1  2  2  0  0  0  0 
  2  3  1  0  0  0  0 
  2  9  1  0  0  0  0 
  3  4  2  0  0  0  0 
  3  8  1  0  0  0  0 
  4  5  1  0  0  0  0 
  5  6  2  0  0  0  0 
  6  7  1  0  0  0  0 
  7  8  2  0  0  0  0 
  9 10  1  0  0  0  0 
M  END
> <CDK Fingerprint>
AIAAAAAAAAAAAAAAAAAAAAAAAAIAAAAIAADoAAAABAAAAAEAAAAAIAAAAAIAAABAAAAAQAAAAQAECAAgAIAAACAAAAAAAAAAAAAAAAAAAICAAAAAAIAAIADAAEAgAAAAAAACQAAEAAAAFACAEAhAAAAAAAAAAAA=

> <ActivityOutcome_CPDBAS_Rat>
inactive

$$$$

  CDK     0721101958

 14 14  0  0  0  0  0  0  0  0999 V2000
    0.0000   -3.4581    0.0000 Cl  0  0  0  0  0  1  0  0  0  0  0  0
    1.3329   -3.4581    0.0000 C   0  0  0  0  0  4  0  0  0  0  0  0
    1.9947   -2.3023    0.0000 C   0  0  0  0  0  4  0  0  0  0  0  0
    1.3329   -1.1558    0.0000 O   0  0  0  0  0  2  0  0  0  0  0  0
    3.3276   -2.3023    0.0000 C   0  0  0  0  0  4  0  0  0  0  0  0
    3.9987   -1.1558    0.0000 C   0  0  0  0  0  4  0  0  0  0  0  0
    5.3223   -1.1558    0.0000 C   0  0  0  0  0  4  0  0  0  0  0  0
    5.9934   -2.3023    0.0000 C   0  0  0  0  0  4  0  0  0  0  0  0
    7.3263   -2.3023    0.0000 N   0  0  0  0  0  3  0  0  0  0  0  0
    7.9881   -1.1558    0.0000 C   0  0  0  0  0  4  0  0  0  0  0  0
    7.3263    0.0000    0.0000 O   0  0  0  0  0  2  0  0  0  0  0  0
    9.3210   -1.1558    0.0000 C   0  0  0  0  0  4  0  0  0  0  0  0
    3.9987   -3.4581    0.0000 C   0  0  0  0  0  4  0  0  0  0  0  0
    5.3223   -3.4581    0.0000 C   0  0  0  0  0  4  0  0  0  0  0  0
  1  2  1  0  0  0  0 
  2  3  1  0  0  0  0 
  3  4  2  0  0  0  0 
  3  5  1  0  0  0  0 
  5  6  2  0  0  0  0 
  5 13  1  0  0  0  0 
  6  7  1  0  0  0  0 
  7  8  2  0  0  0  0 
  8  9  1  0  0  0  0 
  8 14  1  0  0  0  0 
  9 10  1  0  0  0  0 
 10 11  2  0  0  0  0 
 10 12  1  0  0  0  0 
 13 14  2  0  0  0  0 
M  END
> <CDK Fingerprint>
QAABICIIgCAAAEIEAAAAAAAAAEEBAAAAAgTAAggAAOgAAAAEAAAAAQAAAICgBARAAgACAEAAAADABAABwAQIACAAkQAAIAAABIAAkAAAAAAAAAAAgIAEAAAAgAAgAMAAQCAAAAAAAAJAAAQAAAAUAIBQCMAAgAAAAAIQAA==

> <ActivityOutcome_CPDBAS_Rat>
inactive

$$$$

  CDK     0721101958

  8  8  0  0  0  0  0  0  0  0999 V2000
    0.0000   -1.1545    0.0000 N   0  0  0  0  0  3  0  0  0  0  0  0
    1.3300   -1.1545    0.0000 C   0  0  0  0  0  4  0  0  0  0  0  0
    1.9950    0.0000    0.0000 C   0  0  0  0  0  4  0  0  0  0  0  0
    3.3250    0.0000    0.0000 C   0  0  0  0  0  4  0  0  0  0  0  0
    3.9900   -1.1545    0.0000 C   0  0  0  0  0  4  0  0  0  0  0  0
    3.3250   -2.3036    0.0000 C   0  0  0  0  0  4  0  0  0  0  0  0
    1.9950   -2.3036    0.0000 C   0  0  0  0  0  4  0  0  0  0  0  0
    5.3201   -1.1545    0.0000 Cl  0  0  0  0  0  1  0  0  0  0  0  0
  1  2  1  0  0  0  0 
  2  3  2  0  0  0  0 
  2  7  1  0  0  0  0 
  3  4  1  0  0  0  0 
  4  5  2  0  0  0  0 
  5  6  1  0  0  0  0 
  5  8  1  0  0  0  0 
  6  7  2  0  0  0  0 
M  END
> <CDK Fingerprint>
IAAAAAAAAAAAAAAAAAAAQAAAAAAABAACAAAA4AAAAAAAAAAAAAAAACAAAAAAAAAAQAAAAAAAAAEAAAAAAAAAAAAAAAAAAAAAAAAAAAAAAAABAQAAAAAAACAAAACAIAQAAAAAEgAAAAAAAAAAgAAAAAAAAAAAAhAA

> <ActivityOutcome_CPDBAS_Rat>
inactive

$$$$

  CDK     0721101958

 13 13  0  0  0  0  0  0  0  0999 V2000
    4.6539    0.0000    0.0000 Cl  0  0  0  0  0  1  0  0  0  0  0  0
    5.3198   -1.1488    0.0000 C   0  0  0  0  0  4  0  0  0  0  0  0
    6.6516   -1.1488    0.0000 C   0  0  0  0  0  4  0  0  0  0  0  0
    7.3175   -2.3050    0.0000 C   0  0  0  0  0  4  0  0  0  0  0  0
    6.6516   -3.4539    0.0000 C   0  0  0  0  0  4  0  0  0  0  0  0
    4.6539   -2.3050    0.0000 C   0  0  0  0  0  4  0  0  0  0  0  0
    5.3198   -3.4539    0.0000 C   0  0  0  0  0  4  0  0  0  0  0  0
    3.3295   -2.3050    0.0000 C   0  0  0  0  0  4  0  0  0  0  0  0
    2.6636   -3.4539    0.0000 C   0  0  0  0  0  4  0  0  0  0  0  0
    1.3318   -3.4539    0.0000 C   0  0  0  0  0  4  0  0  0  0  0  0
    0.0000   -3.4539    0.0000 N   0  0  0  0  0  3  0  0  0  0  0  0
    3.3295   -4.6100    0.0000 C   0  0  0  0  0  4  0  0  0  0  0  0
    3.9880   -5.7589    0.0000 N   0  0  0  0  0  3  0  0  0  0  0  0
  1  2  1  0  0  0  0 
  2  3  2  0  0  0  0 
  2  6  1  0  0  0  0 
  3  4  1  0  0  0  0 
  4  5  2  0  0  0  0 
  5  7  1  0  0  0  0 
  6  7  2  0  0  0  0 
  6  8  1  0  0  0  0 
  8  9  2  0  0  0  0 
  9 10  1  0  0  0  0 
  9 12  1  0  0  0  0 
 10 11  3  0  0  0  0 
 12 13  3  0  0  0  0 
M  END
> <CDK Fingerprint>
WAAAEAAAQAAAABAAAAAEAAAAAAAAAAAAAACAAAgAAAAAAOAAQAAAAAAAAAACABAgAAAACAAQAEAAAAhAAAABAAQAAAAAABAAAAAAAAAAAAAAAAAAAAgAAYERAAACgAAwAAAAwCAEAAAAEAJAAAggAAAAQIAACCAAAAAAAAAAAA==

> <ActivityOutcome_CPDBAS_Rat>
inactive

$$$$

  CDK     0721101958

  7  7  0  0  0  0  0  0  0  0999 V2000
    0.0000   -1.1496    0.0000 Cl  0  0  0  0  0  1  0  0  0  0  0  0
    1.3292   -1.1496    0.0000 C   0  0  0  0  0  4  0  0  0  0  0  0
    1.9958    0.0000    0.0000 C   0  0  0  0  0  4  0  0  0  0  0  0
    3.3250    0.0000    0.0000 C   0  0  0  0  0  4  0  0  0  0  0  0
    3.9916   -1.1496    0.0000 C   0  0  0  0  0  4  0  0  0  0  0  0
    3.3250   -2.3032    0.0000 C   0  0  0  0  0  4  0  0  0  0  0  0
    1.9958   -2.3032    0.0000 C   0  0  0  0  0  4  0  0  0  0  0  0
  1  2  1  0  0  0  0 
  2  3  2  0  0  0  0 
  2  7  1  0  0  0  0 
  3  4  1  0  0  0  0 
  4  5  2  0  0  0  0 
  5  6  1  0  0  0  0 
  6  7  2  0  0  0  0 
M  END
> <CDK Fingerprint>
AMAAAAAAAAAAAAAAAAAgAAAAAAAAAEAAAAAAAAABAAAAAAAAAAAAAAAAAAAAAAAAAAAAAAAAAQEAAAAAAAAgAAAAgCAEAAAAAAIAAAAAAAAAAIAAAAAAAAAAAAAAAA==

> <ActivityOutcome_CPDBAS_Rat>
active

> <TD50_Rat_mmol>
2.19

$$$$

  CDK     0721101958

 21 22  0  0  0  0  0  0  0  0999 V2000
    0.0000   -5.3155    0.0000 O   0  0  0  0  0  2  0  0  0  0  0  0
    1.3312   -5.3155    0.0000 C   0  0  0  0  0  4  0  0  0  0  0  0
    1.3312   -3.9936    0.0000 C   0  0  0  0  0  4  0  0  0  0  0  0
    0.1769   -3.3233    0.0000 C   0  0  0  0  0  4  0  0  0  0  0  0
    0.1769   -1.9921    0.0000 C   0  0  0  0  0  4  0  0  0  0  0  0
    1.3312   -1.3312    0.0000 C   0  0  0  0  0  4  0  0  0  0  0  0
    2.4855   -1.9921    0.0000 C   0  0  0  0  0  4  0  0  0  0  0  0
    2.4855   -3.3233    0.0000 C   0  0  0  0  0  4  0  0  0  0  0  0
    1.3312    0.0000    0.0000 Cl  0  0  0  0  0  1  0  0  0  0  0  0
    2.6624   -5.3155    0.0000 C   0  0  0  0  0  4  0  0  0  0  0  0
    3.3233   -4.1705    0.0000 C   0  0  0  0  0  4  0  0  0  0  0  0
    4.6545   -4.1705    0.0000 C   0  0  0  0  0  4  0  0  0  0  0  0
    5.3155   -5.3155    0.0000 C   0  0  0  0  0  4  0  0  0  0  0  0
    4.6545   -6.4698    0.0000 C   0  0  0  0  0  4  0  0  0  0  0  0
    3.3233   -6.4698    0.0000 C   0  0  0  0  0  4  0  0  0  0  0  0
    6.6467   -5.3155    0.0000 Cl  0  0  0  0  0  1  0  0  0  0  0  0
    1.3312   -6.6467    0.0000 C   0  0  0  0  0  4  0  0  0  0  0  0
    0.1769   -7.3169    0.0000 O   0  0  0  0  0  2  0  0  0  0  0  0
    2.4855   -7.3169    0.0000 O   0  0  0  0  0  2  0  0  0  0  0  0
    2.4855   -8.6481    0.0000 C   0  0  0  0  0  4  0  0  0  0  0  0
    3.6305   -9.3091    0.0000 C   0  0  0  0  0  4  0  0  0  0  0  0
  1  2  1  0  0  0  0 
  2  3  1  0  0  0  0 
  2 10  1  0  0  0  0 
  2 17  1  0  0  0  0 
  3  4  2  0  0  0  0 
  3  8  1  0  0  0  0 
  4  5  1  0  0  0  0 
  5  6  2  0  0  0  0 
  6  7  1  0  0  0  0 
  6  9  1  0  0  0  0 
  7  8  2  0  0  0  0 
 10 11  2  0  0  0  0 
 10 15  1  0  0  0  0 
 11 12  1  0  0  0  0 
 12 13  2  0  0  0  0 
 13 14  1  0  0  0  0 
 13 16  1  0  0  0  0 
 14 15  2  0  0  0  0 
 17 18  2  0  0  0  0 
 17 19  1  0  0  0  0 
 19 20  1  0  0  0  0 
 20 21  1  0  0  0  0 
M  END
> <CDK Fingerprint>
CIAAAAAAAAAAAAACAoAAABABAAAAAABEgAQAAIAAAAAIAADgAIAAAAAAAAACAEBYIAYAABAAACBAAQAAUAAAAQAMCCAAAACAEAAQAAAAJAAIAAAAACAAQAGBEAAAAsAAIABAAMAgBAIRAAECQEAECYCAFACAUABBAAEQACAAQAA=

> <ActivityOutcome_CPDBAS_Rat>
inactive

$$$$

  CDK     0721101958

  4  3  0  0  0  0  0  0  0  0999 V2000
    1.9950    0.0000    0.0000 Cl  0  0  0  0  0  1  0  0  0  0  0  0
    1.3292   -1.1518    0.0000 C   0  0  0  0  0  4  0  0  0  0  0  0
    1.9950   -2.3037    0.0000 Br  0  0  0  0  0  1  0  0  0  0  0  0
    0.0000   -1.1518    0.0000 Br  0  0  0  0  0  1  0  0  0  0  0  0
  1  2  1  0  0  0  0 
  2  3  1  0  0  0  0 
  2  4  1  0  0  0  0 
M  END
> <CDK Fingerprint>
AYAAAADAAAAAAAAAAAAAAAAAAAAAAAAAAAAAAAAAAAAAAQAAAAAAAAAAAAAAAAEAAAAAAAAAAAAAAAAAAAAAAAAAAAAAAAAAAAAAAAAAAAAAAAAAAAAAAAAAAAAAAAAAAAA=

> <ActivityOutcome_CPDBAS_Rat>
inactive

$$$$

  CDK     0721101958

  4  3  0  0  0  0  0  0  0  0999 V2000
    1.9950    0.0000    0.0000 F   0  0  0  0  0  1  0  0  0  0  0  0
    1.3292   -1.1518    0.0000 C   0  0  0  0  0  4  0  0  0  0  0  0
    1.9950   -2.3037    0.0000 F   0  0  0  0  0  1  0  0  0  0  0  0
    0.0000   -1.1518    0.0000 Cl  0  0  0  0  0  1  0  0  0  0  0  0
  1  2  1  0  0  0  0 
  2  3  1  0  0  0  0 
  2  4  1  0  0  0  0 
M  END
> <CDK Fingerprint>
EAAAwAAAAAAgAAAAAAAAAAAAAAACAAAAAAAAAAAAAAEAAAAAAAAAAAAAAAAAAAAAAAAAAAAAAAAAAAAAAAAAAAAAAAAAAAAAAAAAAAAAAAAAAAAAAAAAAAAAAAAAAAAA

> <ActivityOutcome_CPDBAS_Rat>
inactive

$$$$

  CDK     0721101958

  3  2  0  0  0  0  0  0  0  0999 V2000
    2.3030   -0.6656    0.0000 C   0  0  0  0  0  4  0  0  0  0  0  0
    1.1515    0.0000    0.0000 C   0  0  0  0  0  4  0  0  0  0  0  0
    0.0000   -0.6656    0.0000 Cl  0  0  0  0  0  1  0  0  0  0  0  0
  1  2  1  0  0  0  0 
  2  3  1  0  0  0  0 
M  END
> <CDK Fingerprint>
AMAAAAAAAAAAAAAAAAAgAAAAAgAAAAAAAAAAAAABAAAAAAAAAAAAAAAAAAAAAAAAAAAAAAAAAAAAAAAAAAAAAAAAAAAAAAAAAAAAAAAAAAAAAAAAAAAAAAAAAAAAAA==

> <ActivityOutcome_CPDBAS_Rat>
inactive

$$$$

  CDK     0721101958

 13 12  0  0  0  0  0  0  0  0999 V2000
    2.3072   -2.0007    0.0000 N   0  0  0  0  0  3  0  0  0  0  0  0
    3.4608   -2.6622    0.0000 C   0  0  0  0  0  4  0  0  0  0  0  0
    3.4608   -3.9933    0.0000 O   0  0  0  0  0  2  0  0  0  0  0  0
    4.6064   -2.0007    0.0000 N   0  0  0  0  0  3  0  0  0  0  0  0
    5.7600   -2.6622    0.0000 C   0  0  0  0  0  4  0  0  0  0  0  0
    6.9136   -2.0007    0.0000 C   0  0  0  0  0  4  0  0  0  0  0  0
    6.9136   -0.6696    0.0000 C   0  0  0  0  0  4  0  0  0  0  0  0
    8.0672   -2.6622    0.0000 O   0  0  0  0  0  2  0  0  0  0  0  0
    2.3072   -0.6696    0.0000 N   0  0  0  0  0  3  0  0  0  0  0  0
    3.4608    0.0000    0.0000 O   0  0  0  0  0  2  0  0  0  0  0  0
    1.1536   -2.6622    0.0000 C   0  0  0  0  0  4  0  0  0  0  0  0
    1.1536   -3.9933    0.0000 C   0  0  0  0  0  4  0  0  0  0  0  0
    0.0000   -2.0007    0.0000 Cl  0  0  0  0  0  1  0  0  0  0  0  0
  1  2  1  0  0  0  0 
  1  9  1  0  0  0  0 
  1 11  1  0  0  0  0 
  2  3  2  0  0  0  0 
  2  4  1  0  0  0  0 
  4  5  1  0  0  0  0 
  5  6  1  0  0  0  0 
  6  7  1  0  0  0  0 
  6  8  1  0  0  0  0 
  9 10  2  0  0  0  0 
 11 12  1  0  0  0  0 
 11 13  1  0  0  0  0 
M  END
> <CDK Fingerprint>
CAAAAAIQAEoAAYAAAAAAAAAAAAAAAAAAAAAABIUAIOAAAAKAgAAAAAAAAQgiIEEAAyAAoAAAAADAAAADgAACAAEAAAEAAAAAAEAAgAAAkEAgAAAAAAAQAAAAAAAAAEQgFAAAAAAAAFAAAAAAAABAAABABAAAgAAACAMAAA==

> <ActivityOutcome_CPDBAS_Rat>
active

> <TD50_Rat_mmol>
0.000592

$$$$

  CDK     0721101958

  3  2  0  0  0  0  0  0  0  0999 V2000
    2.3030   -0.6656    0.0000 F   0  0  0  0  0  1  0  0  0  0  0  0
    1.1515    0.0000    0.0000 C   0  0  0  0  0  4  0  0  0  0  0  0
    0.0000   -0.6656    0.0000 Cl  0  0  0  0  0  1  0  0  0  0  0  0
  1  2  1  0  0  0  0 
  2  3  1  0  0  0  0 
M  END
> <CDK Fingerprint>
AMAAAAAAIAAAAAAAAAAAAAAAAgAAAAAAAAAAAAABAAAAAAAAAAAAAAAAAAAAAAAAAAAAAAAAAAAAAAAAAAAAAAAAAAAAAAAAAAAAAAAAAAAAAAAAAAAAAAAAAAAAAA==

> <ActivityOutcome_CPDBAS_Rat>
active

> <TD50_Rat_mmol>
0.402

$$$$

  CDK     0721101958

  4  3  0  0  0  0  0  0  0  0999 V2000
    1.9950    0.0000    0.0000 Cl  0  0  0  0  0  1  0  0  0  0  0  0
    1.3292   -1.1518    0.0000 C   0  0  0  0  0  4  0  0  0  0  0  0
    1.9950   -2.3037    0.0000 Cl  0  0  0  0  0  1  0  0  0  0  0  0
    0.0000   -1.1518    0.0000 Cl  0  0  0  0  0  1  0  0  0  0  0  0
  1  2  1  0  0  0  0 
  2  3  1  0  0  0  0 
  2  4  1  0  0  0  0 
M  END
> <CDK Fingerprint>
AMAAAAAAAAAAAAAAAAAAAAAABAAAAAAAAAAAAAABAAAAAAAAAAAAAAAAAAAAAAAAAAAAAAAAAAAAAAAAAAAAAAAAAAAAAAAAAAAAAAAAAAAAAAAAAAAAAAAAAAAAAA==

> <ActivityOutcome_CPDBAS_Rat>
active

> <TD50_Rat_mmol>
2.19

$$$$

  CDK     0721101958

  4  3  0  0  0  0  0  0  0  0999 V2000
    3.4575    0.0000    0.0000 Cl  0  0  0  0  0  1  0  0  0  0  0  0
    2.3061   -0.6638    0.0000 C   0  0  0  0  0  4  0  0  0  0  0  0
    1.1513    0.0000    0.0000 O   0  0  0  0  0  2  0  0  0  0  0  0
    0.0000   -0.6638    0.0000 C   0  0  0  0  0  4  0  0  0  0  0  0
  1  2  1  0  0  0  0 
  2  3  1  0  0  0  0 
  3  4  1  0  0  0  0 
M  END
> <CDK Fingerprint>
AgAAAAAAAAAAAAAAAIAAAAAAAAAAAAAA4AAAAAAAAAAAAAAAAAAAAAAEAAAAAAAAAAAAAAEAAAAAAAAAAAAAAAAAAAAAAAAAAAAAAAAAAAAAAAAAAAAAAAAAAAAAAAAAAAAAAAgAAAAAAAAAAAAAAAAAAAAA

> <ActivityOutcome_CPDBAS_Rat>
active

> <TD50_Rat_mmol>
0.0683

$$$$

  CDK     0721101958

 13 13  0  0  0  0  0  0  0  0999 V2000
    2.6555    0.0000    0.0000 O   0  0  0  0  0  2  0  0  0  0  0  0
    1.9937   -1.1483    0.0000 C   0  0  0  0  0  4  0  0  0  0  0  0
    0.6619   -1.1483    0.0000 N   0  0  0  0  0  3  0  0  0  0  0  0
    0.0000   -2.3047    0.0000 C   0  0  0  0  0  4  0  0  0  0  0  0
    0.0000    0.0000    0.0000 C   0  0  0  0  0  4  0  0  0  0  0  0
    2.6555   -2.3047    0.0000 N   0  0  0  0  0  3  0  0  0  0  0  0
    3.9873   -2.3047    0.0000 C   0  0  0  0  0  4  0  0  0  0  0  0
    4.6492   -1.1483    0.0000 C   0  0  0  0  0  4  0  0  0  0  0  0
    5.9810   -1.1483    0.0000 C   0  0  0  0  0  4  0  0  0  0  0  0
    6.6429   -2.3047    0.0000 C   0  0  0  0  0  4  0  0  0  0  0  0
    5.9810   -3.4530    0.0000 C   0  0  0  0  0  4  0  0  0  0  0  0
    4.6492   -3.4530    0.0000 C   0  0  0  0  0  4  0  0  0  0  0  0
    7.9746   -2.3047    0.0000 Cl  0  0  0  0  0  1  0  0  0  0  0  0
  1  2  2  0  0  0  0 
  2  3  1  0  0  0  0 
  2  6  1  0  0  0  0 
  3  4  1  0  0  0  0 
  3  5  1  0  0  0  0 
  6  7  1  0  0  0  0 
  7  8  2  0  0  0  0 
  7 12  1  0  0  0  0 
  8  9  1  0  0  0  0 
  9 10  2  0  0  0  0 
 10 11  1  0  0  0  0 
 10 13  1  0  0  0  0 
 11 12  2  0  0  0  0 
M  END
> <CDK Fingerprint>
ICCQAEQAAAAAAAAAAAAAAFAAAAEAAATAAgAIQOABAAEAAAAAAABAAQAgAAQAAAACAEAAAACABAABwAAAAAAAAQAAAAAABAAAAAAAAAAAAAAAAQEAAAAAAAAgCEAAgCAEAAAAABIAAAAAAABCAIBAAEAAAAAQAAIQAA==

> <ActivityOutcome_CPDBAS_Rat>
active

> <TD50_Rat_mmol>
0.659

$$$$

  CDK     0721101958

 34 38  0  0  0  0  0  0  0  0999 V2000
   11.7600   -2.0386    0.0000 N   0  0  0  0  0  3  0  0  0  0  0  0
   13.0836   -2.0386    0.0000 C   0  0  0  0  0  4  0  0  0  0  0  0
   13.9204   -3.0731    0.0000 C   0  0  0  0  0  4  0  0  0  0  0  0
   13.6161   -4.3815    0.0000 N   0  0  0  0  0  3  0  0  0  0  0  0
   12.4142   -4.9596    0.0000 C   0  0  0  0  0  4  0  0  0  0  0  0
   11.2276   -4.3815    0.0000 C   0  0  0  0  0  4  0  0  0  0  0  0
   10.9233   -3.0731    0.0000 C   0  0  0  0  0  4  0  0  0  0  0  0
   12.4142    0.0000    0.0000 N   0  0  0  0  0  3  0  0  0  0  0  0
   13.4944   -0.7759    0.0000 N   0  0  0  0  0  3  0  0  0  0  0  0
   11.3493   -0.7759    0.0000 C   0  0  0  0  0  4  0  0  0  0  0  0
    9.5997   -2.9666    0.0000 S   0  0  0  0  0  2  0  0  0  0  0  0
    9.0825   -4.1837    0.0000 C   0  0  0  0  0  4  0  0  0  0  0  0
   10.0866   -5.0661    0.0000 C   0  0  0  0  0  4  0  0  0  0  0  0
   12.4142   -6.2832    0.0000 C   0  0  0  0  0  4  0  0  0  0  0  0
   13.5705   -6.9526    0.0000 C   0  0  0  0  0  4  0  0  0  0  0  0
   11.2732   -6.9526    0.0000 C   0  0  0  0  0  4  0  0  0  0  0  0
   13.5705   -8.2762    0.0000 C   0  0  0  0  0  4  0  0  0  0  0  0
   11.2732   -8.2762    0.0000 C   0  0  0  0  0  4  0  0  0  0  0  0
   12.4142   -8.9455    0.0000 C   0  0  0  0  0  4  0  0  0  0  0  0
   14.7267   -6.2832    0.0000 Cl  0  0  0  0  0  1  0  0  0  0  0  0
    7.7893   -4.4728    0.0000 C   0  0  0  0  0  4  0  0  0  0  0  0
    7.3938   -5.7507    0.0000 C   0  0  0  0  0  4  0  0  0  0  0  0
    6.0854   -6.0550    0.0000 C   0  0  0  0  0  4  0  0  0  0  0  0
    5.7051   -7.3177    0.0000 C   0  0  0  0  0  4  0  0  0  0  0  0
    5.1878   -5.0661    0.0000 C   0  0  0  0  0  4  0  0  0  0  0  0
    4.3967   -7.6220    0.0000 C   0  0  0  0  0  4  0  0  0  0  0  0
    3.8947   -5.3704    0.0000 C   0  0  0  0  0  4  0  0  0  0  0  0
    3.4991   -6.6331    0.0000 C   0  0  0  0  0  4  0  0  0  0  0  0
    2.2060   -6.9374    0.0000 C   0  0  0  0  0  4  0  0  0  0  0  0
    1.2931   -5.9637    0.0000 C   0  0  0  0  0  4  0  0  0  0  0  0
    1.6887   -4.6858    0.0000 C   0  0  0  0  0  4  0  0  0  0  0  0
    0.0000   -6.2528    0.0000 C   0  0  0  0  0  4  0  0  0  0  0  0
   15.2135   -2.7841    0.0000 C   0  0  0  0  0  4  0  0  0  0  0  0
   10.0866   -0.3651    0.0000 C   0  0  0  0  0  4  0  0  0  0  0  0
  1  2  1  0  0  0  0 
  1  7  1  0  0  0  0 
  1 10  1  0  0  0  0 
  2  3  1  0  0  0  0 
  2  9  2  0  0  0  0 
  3  4  1  0  0  0  0 
  3 33  1  0  0  0  0 
  4  5  2  0  0  0  0 
  5  6  1  0  0  0  0 
  5 14  1  0  0  0  0 
  6  7  2  0  0  0  0 
  6 13  1  0  0  0  0 
  7 11  1  0  0  0  0 
  8  9  1  0  0  0  0 
  8 10  2  0  0  0  0 
 10 34  1  0  0  0  0 
 11 12  1  0  0  0  0 
 12 13  2  0  0  0  0 
 12 21  1  0  0  0  0 
 14 15  2  0  0  0  0 
 14 16  1  0  0  0  0 
 15 17  1  0  0  0  0 
 15 20  1  0  0  0  0 
 16 18  2  0  0  0  0 
 17 19  2  0  0  0  0 
 18 19  1  0  0  0  0 
 21 22  1  0  0  0  0 
 22 23  1  0  0  0  0 
 23 24  2  0  0  0  0 
 23 25  1  0  0  0  0 
 24 26  1  0  0  0  0 
 25 27  2  0  0  0  0 
 26 28  2  0  0  0  0 
 27 28  1  0  0  0  0 
 28 29  1  0  0  0  0 
 29 30  1  0  0  0  0 
 30 31  1  0  0  0  0 
 30 32  1  0  0  0  0 
M  END
> <CDK Fingerprint>
NlRA8wDoTnVzAlQRIIHQFbbdGpQEgUBNkEpSQAwNBIVqxJPmsChwihMQfAS/E1g4doLiBR3i4aJCEbAtwiwQI2JeXKaMiDlahiAUKABjIlEL8lUyCAY6AvOLxOxLkJxRKApVINawLTXmICEiWZIUM6lCnGiVJcBGAsITiwMD/mo=

> <ActivityOutcome_CPDBAS_Rat>
inactive

$$$$

  CDK     0721101958

 20 21  0  0  0  0  0  0  0  0999 V2000
    1.5031   -7.3083    0.0000 C   0  0  0  0  0  4  0  0  0  0  0  0
    0.3542   -6.6431    0.0000 N   0  0  0  0  0  3  0  0  0  0  0  0
    1.5031   -8.6386    0.0000 O   0  0  0  0  0  2  0  0  0  0  0  0
    2.6607   -6.6431    0.0000 O   0  0  0  0  0  2  0  0  0  0  0  0
    2.6607   -5.3128    0.0000 C   0  0  0  0  0  4  0  0  0  0  0  0
    1.3303   -5.3128    0.0000 C   0  0  0  0  0  4  0  0  0  0  0  0
    0.0000   -5.3128    0.0000 C   0  0  0  0  0  4  0  0  0  0  0  0
    3.9910   -5.3128    0.0000 C   0  0  0  0  0  4  0  0  0  0  0  0
    4.6476   -4.1638    0.0000 C   0  0  0  0  0  4  0  0  0  0  0  0
    5.9779   -4.1638    0.0000 C   0  0  0  0  0  4  0  0  0  0  0  0
    6.6431   -5.3128    0.0000 C   0  0  0  0  0  4  0  0  0  0  0  0
    5.9779   -6.4703    0.0000 C   0  0  0  0  0  4  0  0  0  0  0  0
    4.6476   -6.4703    0.0000 C   0  0  0  0  0  4  0  0  0  0  0  0
    2.6607   -3.9910    0.0000 C   0  0  0  0  0  4  0  0  0  0  0  0
    1.5031   -3.3259    0.0000 C   0  0  0  0  0  4  0  0  0  0  0  0
    1.5031   -1.9955    0.0000 C   0  0  0  0  0  4  0  0  0  0  0  0
    2.6607   -1.3303    0.0000 C   0  0  0  0  0  4  0  0  0  0  0  0
    3.8096   -1.9955    0.0000 C   0  0  0  0  0  4  0  0  0  0  0  0
    3.8096   -3.3259    0.0000 C   0  0  0  0  0  4  0  0  0  0  0  0
    2.6607    0.0000    0.0000 Cl  0  0  0  0  0  1  0  0  0  0  0  0
  1  2  1  0  0  0  0 
  1  3  2  0  0  0  0 
  1  4  1  0  0  0  0 
  4  5  1  0  0  0  0 
  5  6  1  0  0  0  0 
  5  8  1  0  0  0  0 
  5 14  1  0  0  0  0 
  6  7  3  0  0  0  0 
  8  9  1  0  0  0  0 
  8 13  2  0  0  0  0 
  9 10  2  0  0  0  0 
 10 11  1  0  0  0  0 
 11 12  2  0  0  0  0 
 12 13  1  0  0  0  0 
 14 15  1  0  0  0  0 
 14 19  2  0  0  0  0 
 15 16  2  0  0  0  0 
 16 17  1  0  0  0  0 
 17 18  2  0  0  0  0 
 17 20  1  0  0  0  0 
 18 19  1  0  0  0  0 
M  END
> <CDK Fingerprint>
AoAAAIAgAAIAAAACAICAABABAAAQAAAAgAQAAIAAIAAIAADgAAAAAAAAAQACAABAIAIBAAQgACBAAQAAQAAAAQAMSAAAAAAAEAAAAAAAIAAoAgAAAAAAAAGBEUAAAIAAIIBAAMAgBgATEEECQEgECACANACAQABBABHAAAgCIAA=

> <ActivityOutcome_CPDBAS_Rat>
active

> <TD50_Rat_mmol>
0.0307

$$$$

  CDK     0721101958

 17 18  0  0  0  0  0  0  0  0999 V2000
    4.6047   -2.6615    0.0000 Cl  0  0  0  0  0  1  0  0  0  0  0  0
    3.4535   -1.9984    0.0000 C   0  0  0  0  0  4  0  0  0  0  0  0
    2.3023   -2.6615    0.0000 C   0  0  0  0  0  4  0  0  0  0  0  0
    1.1512   -1.9984    0.0000 C   0  0  0  0  0  4  0  0  0  0  0  0
    1.1512   -0.6631    0.0000 C   0  0  0  0  0  4  0  0  0  0  0  0
    2.3023    0.0000    0.0000 C   0  0  0  0  0  4  0  0  0  0  0  0
    3.4535   -0.6631    0.0000 C   0  0  0  0  0  4  0  0  0  0  0  0
    4.6047    0.0000    0.0000 S   0  0  0  0  0  2  0  0  0  0  0  0
    5.7558   -0.6631    0.0000 C   0  0  0  0  0  4  0  0  0  0  0  0
    6.9070    0.0000    0.0000 C   0  0  0  0  0  4  0  0  0  0  0  0
    8.0581   -0.6631    0.0000 C   0  0  0  0  0  4  0  0  0  0  0  0
    8.0581   -1.9984    0.0000 C   0  0  0  0  0  4  0  0  0  0  0  0
    6.9070   -2.6615    0.0000 C   0  0  0  0  0  4  0  0  0  0  0  0
    5.7558   -1.9984    0.0000 C   0  0  0  0  0  4  0  0  0  0  0  0
    9.2093   -2.6615    0.0000 Cl  0  0  0  0  0  1  0  0  0  0  0  0
    0.0000    0.0000    0.0000 Cl  0  0  0  0  0  1  0  0  0  0  0  0
    0.0000   -2.6615    0.0000 Cl  0  0  0  0  0  1  0  0  0  0  0  0
  1  2  1  0  0  0  0 
  2  3  2  0  0  0  0 
  2  7  1  0  0  0  0 
  3  4  1  0  0  0  0 
  4  5  2  0  0  0  0 
  4 17  1  0  0  0  0 
  5  6  1  0  0  0  0 
  5 16  1  0  0  0  0 
  6  7  2  0  0  0  0 
  7  8  1  0  0  0  0 
  8  9  1  0  0  0  0 
  9 10  2  0  0  0  0 
  9 14  1  0  0  0  0 
 10 11  1  0  0  0  0 
 11 12  2  0  0  0  0 
 12 13  1  0  0  0  0 
 12 15  1  0  0  0  0 
 13 14  2  0  0  0  0 
M  END
> <CDK Fingerprint>
IAgAAAAAAAAAAABIIAACAAAAAAAgAAAAAAAAEAAIAAACAAHAAgAABCAgAICAAAAAIBAAAAAQAADAQgAQAACAAQAAAAAAAAAAAAAAAAAAAAAAJDAAgAAAACEBABAAAAAAIAAAAIAwRAAAAABSgBAAAAAAAACAAAAEAQAAAEABAAA=

> <ActivityOutcome_CPDBAS_Rat>
inactive

$$$$

  CDK     0721101958

  7  6  0  0  0  0  0  0  0  0999 V2000
    2.6608   -1.9956    0.0000 Cl  0  0  0  0  0  1  0  0  0  0  0  0
    1.3304   -1.9956    0.0000 C   0  0  0  0  0  4  0  0  0  0  0  0
    1.3304   -0.6652    0.0000 N   0  0  0  0  0  4  0  0  0  0  0  0
    0.1796    0.0000    0.0000 O   0  0  0  0  0  2  0  0  0  0  0  0
    2.4812    0.0000    0.0000 O   0  0  0  0  0  1  0  0  0  0  0  0
    1.3304   -3.3260    0.0000 Cl  0  0  0  0  0  1  0  0  0  0  0  0
    0.0000   -1.9956    0.0000 Cl  0  0  0  0  0  1  0  0  0  0  0  0
  1  2  1  0  0  0  0 
  2  3  1  0  0  0  0 
  2  6  1  0  0  0  0 
  2  7  1  0  0  0  0 
  3  4  2  0  0  0  0 
  3  5  1  0  0  0  0 
M  CHG  1   3   1
M  CHG  1   5  -1
M  END
> <CDK Fingerprint>
CAAAAAAAAAAAAAAQAAAAAAAAAAAEAAAA4AAAAAAAAAAAAAAAAAAAAAAHAAAAAAAAAAAAAAEAAAAAAAAAAAAAAAAAAAAAAAAAAAAAAAAAAAAAAAAAAAAABAAQAAAAAAAQAAAAAAAAAAAAAAAAAAAAAAAAAgAA

> <ActivityOutcome_CPDBAS_Rat>
unspecified

$$$$

  CDK     0721101958

  5  4  0  0  0  0  0  0  0  0999 V2000
    2.2415   -0.6520    0.0000 C   0  0  0  0  0  4  0  0  0  0  0  0
    1.1191    0.0000    0.0000 C   0  0  0  0  0  4  0  0  0  0  0  0
    3.3606    0.0000    0.0000 C   0  0  0  0  0  4  0  0  0  0  0  0
    0.0000   -0.6520    0.0000 C   0  0  0  0  0  4  0  0  0  0  0  0
    2.2415   -2.0836    0.0000 Cl  0  0  0  0  0  1  0  0  0  0  0  0
  1  2  1  0  0  0  0 
  1  3  2  0  0  0  0 
  1  5  1  0  0  0  0 
  2  4  2  0  0  0  0 
M  END
> <CDK Fingerprint>
QAAAAAAAAAAAAAAAAAAAAAAAAAAAAAAAAAAEAIAAAAAAAMAAAAAAAAAAAAAAAAAgAAAAAgAQAAAAQAAAAAABAAAAAAAAAAAAAAAAAAAAAAAAAAAAAAAAAAAAAAAAAAAAAAAAAAAAAAAAAAAAAAAAAAAAAAAAAAAAAAAAAAAAAA==

> <ActivityOutcome_CPDBAS_Rat>
active

> <TD50_Rat_mmol>
0.141

$$$$

  CDK     0721101958

  5  4  0  0  0  0  0  0  0  0999 V2000
    2.2415   -0.6520    0.0000 C   0  0  0  0  0  4  0  0  0  0  0  0
    1.1191    0.0000    0.0000 C   0  0  0  0  0  4  0  0  0  0  0  0
    3.3606    0.0000    0.0000 C   0  0  0  0  0  4  0  0  0  0  0  0
    0.0000   -0.6520    0.0000 C   0  0  0  0  0  4  0  0  0  0  0  0
    2.2415   -2.0836    0.0000 Cl  0  0  0  0  0  1  0  0  0  0  0  0
  1  2  1  0  0  0  0 
  1  3  2  0  0  0  0 
  1  5  1  0  0  0  0 
  2  4  2  0  0  0  0 
M  END
> <CDK Fingerprint>
QAAAAAAAAAAAAAAAAAAAAAAAAAAAAAAAAAAEAIAAAAAAAMAAAAAAAAAAAAAAAAAgAAAAAgAQAAAAQAAAAAABAAAAAAAAAAAAAAAAAAAAAAAAAAAAAAAAAAAAAAAAAAAAAAAAAAAAAAAAAAAAAAAAAAAAAAAAAAAAAAAAAAAAAA==

> <ActivityOutcome_CPDBAS_Rat>
inactive

$$$$

  CDK     0721101958

  7  6  0  0  0  0  0  0  0  0999 V2000
    1.3307   -1.3307    0.0000 C   0  0  0  0  0  4  0  0  0  0  0  0
    1.3307   -2.6614    0.0000 C   0  0  0  0  0  4  0  0  0  0  0  0
    0.1759   -3.3184    0.0000 Cl  0  0  0  0  0  1  0  0  0  0  0  0
    2.6614   -1.3307    0.0000 F   0  0  0  0  0  1  0  0  0  0  0  0
    0.0000   -1.3307    0.0000 F   0  0  0  0  0  1  0  0  0  0  0  0
    1.3307    0.0000    0.0000 F   0  0  0  0  0  1  0  0  0  0  0  0
    2.4855   -3.3184    0.0000 F   0  0  0  0  0  1  0  0  0  0  0  0
  1  2  1  0  0  0  0 
  1  4  1  0  0  0  0 
  1  5  1  0  0  0  0 
  1  6  1  0  0  0  0 
  2  3  1  0  0  0  0 
  2  7  1  0  0  0  0 
M  END
> <CDK Fingerprint>
MAAAwAAAAAAgAAAAAAAAACAAAAACAAAAAAAAAAAAAAEAAAAAAACABAAAAAAAAAAAAAAAAAAAAAAAAAAAAAAAAAAAAAAAAAAAAAAAAAAAAAAAAAAAAAAAAAAAAAAAAAAA

> <ActivityOutcome_CPDBAS_Rat>
inactive

$$$$

  CDK     0721101958

 14 14  0  0  0  0  0  0  0  0999 V2000
    3.9898   -1.1504    0.0000 Cl  0  0  0  0  0  1  0  0  0  0  0  0
    3.3248   -2.3008    0.0000 C   0  0  0  0  0  4  0  0  0  0  0  0
    3.9898   -3.4578    0.0000 C   0  0  0  0  0  4  0  0  0  0  0  0
    3.3248   -4.6082    0.0000 C   0  0  0  0  0  4  0  0  0  0  0  0
    1.9949   -4.6082    0.0000 C   0  0  0  0  0  4  0  0  0  0  0  0
    1.3299   -3.4578    0.0000 C   0  0  0  0  0  4  0  0  0  0  0  0
    1.9949   -2.3008    0.0000 C   0  0  0  0  0  4  0  0  0  0  0  0
    1.3299   -1.1504    0.0000 C   0  0  0  0  0  4  0  0  0  0  0  0
    0.6650    0.0000    0.0000 N   0  0  0  0  0  3  0  0  0  0  0  0
    0.0000   -3.4578    0.0000 Cl  0  0  0  0  0  1  0  0  0  0  0  0
    1.3299   -5.7586    0.0000 Cl  0  0  0  0  0  1  0  0  0  0  0  0
    3.9898   -5.7586    0.0000 Cl  0  0  0  0  0  1  0  0  0  0  0  0
    5.3197   -3.4578    0.0000 C   0  0  0  0  0  4  0  0  0  0  0  0
    6.6497   -3.4578    0.0000 N   0  0  0  0  0  3  0  0  0  0  0  0
  1  2  1  0  0  0  0 
  2  3  2  0  0  0  0 
  2  7  1  0  0  0  0 
  3  4  1  0  0  0  0 
  3 13  1  0  0  0  0 
  4  5  2  0  0  0  0 
  4 12  1  0  0  0  0 
  5  6  1  0  0  0  0 
  5 11  1  0  0  0  0 
  6  7  2  0  0  0  0 
  6 10  1  0  0  0  0 
  7  8  1  0  0  0  0 
  8  9  3  0  0  0  0 
 13 14  3  0  0  0  0 
M  END
> <CDK Fingerprint>
AQhAAAAAAAAAAAAYAAAAAAAAAAAAAAAAAAAAAAAAAAAAAADgCAQAAACAAAAAAAAAMAkAAAAAAABASAAIAAAAAQAEAAAAAAAAAAAACAAAAAAABgAAAAAEAAGBAAAAAIAAIAQQAMAgBAAAAAFiQAAIAAAAACCAAAAgAAAABAAIAAA=

> <ActivityOutcome_CPDBAS_Rat>
active

> <TD50_Rat_mmol>
8.54

$$$$

  CDK     0721101958

 20 20  0  0  0  0  0  0  0  0999 V2000
    5.9873    0.0000    0.0000 O   0  0  0  0  0  2  0  0  0  0  0  0
    6.6467   -1.1485    0.0000 C   0  0  0  0  0  4  0  0  0  0  0  0
    7.9760   -1.1485    0.0000 O   0  0  0  0  0  2  0  0  0  0  0  0
    8.6460   -2.2971    0.0000 C   0  0  0  0  0  4  0  0  0  0  0  0
    9.9647   -2.2971    0.0000 C   0  0  0  0  0  4  0  0  0  0  0  0
   10.6347   -1.1485    0.0000 O   0  0  0  0  0  2  0  0  0  0  0  0
    7.9760   -3.4563    0.0000 C   0  0  0  0  0  4  0  0  0  0  0  0
    8.6460   -4.6048    0.0000 O   0  0  0  0  0  2  0  0  0  0  0  0
    6.6467   -3.4563    0.0000 C   0  0  0  0  0  4  0  0  0  0  0  0
    5.9873   -4.6048    0.0000 O   0  0  0  0  0  2  0  0  0  0  0  0
    5.9873   -2.2971    0.0000 C   0  0  0  0  0  4  0  0  0  0  0  0
    4.6580   -2.2971    0.0000 N   0  0  0  0  0  3  0  0  0  0  0  0
    3.9880   -3.4563    0.0000 C   0  0  0  0  0  4  0  0  0  0  0  0
    4.6580   -4.6048    0.0000 O   0  0  0  0  0  2  0  0  0  0  0  0
    2.6587   -3.4563    0.0000 N   0  0  0  0  0  3  0  0  0  0  0  0
    1.9887   -2.2971    0.0000 C   0  0  0  0  0  4  0  0  0  0  0  0
    0.6594   -2.2971    0.0000 C   0  0  0  0  0  4  0  0  0  0  0  0
    0.0000   -3.4563    0.0000 Cl  0  0  0  0  0  1  0  0  0  0  0  0
    1.9887   -4.6048    0.0000 N   0  0  0  0  0  3  0  0  0  0  0  0
    0.6594   -4.6048    0.0000 O   0  0  0  0  0  2  0  0  0  0  0  0
  2  1  1  1  0  0  0 
  2  3  1  0  0  0  0 
  2 11  1  0  0  0  0 
  3  4  1  0  0  0  0 
  4  5  1  6  0  0  0 
  4  7  1  0  0  0  0 
  5  6  1  0  0  0  0 
  7  8  1  1  0  0  0 
  7  9  1  0  0  0  0 
  9 10  1  6  0  0  0 
  9 11  1  0  0  0  0 
 11 12  1  1  0  0  0 
 12 13  1  0  0  0  0 
 13 14  2  0  0  0  0 
 13 15  1  0  0  0  0 
 15 16  1  0  0  0  0 
 15 19  1  0  0  0  0 
 16 17  1  0  0  0  0 
 17 18  1  0  0  0  0 
 19 20  2  0  0  0  0 
M  END
> <CDK Fingerprint>
AIAGAAkAAEASEAhLBBWAAJ0QCQAAAQEQwUAEIigAAAQVAyDgRIACgIAEgAAIAIEYJiJjAAKgAOAAAAFAw2IAA4AAAAgBAQBBEAAAAEAABMABAUBCIKhAQBVIEQAAAEIBAABkYAABAAABAAAgARAAACAAQAQAQHQAAIAYAAoLAAA=

> <ActivityOutcome_CPDBAS_Rat>
active

> <TD50_Rat_mmol>
0.00012

$$$$

  CDK     0721101958

 17 17  0  0  0  0  0  0  0  0999 V2000
    7.5733    0.0000    0.0000 O   0  0  0  0  0  2  0  0  0  0  0  0
    6.9058   -1.1510    0.0000 S   0  0  0  0  0  6  0  0  0  0  0  0
    6.2382   -2.3019    0.0000 O   0  0  0  0  0  2  0  0  0  0  0  0
    8.0568   -1.8185    0.0000 C   0  0  0  0  0  4  0  0  0  0  0  0
    9.2077   -1.1510    0.0000 C   0  0  0  0  0  4  0  0  0  0  0  0
   10.3587   -1.8185    0.0000 C   0  0  0  0  0  4  0  0  0  0  0  0
   10.3587   -3.1421    0.0000 C   0  0  0  0  0  4  0  0  0  0  0  0
    9.2077   -3.8097    0.0000 C   0  0  0  0  0  4  0  0  0  0  0  0
    8.0568   -3.1421    0.0000 C   0  0  0  0  0  4  0  0  0  0  0  0
   11.5096   -3.8097    0.0000 Cl  0  0  0  0  0  1  0  0  0  0  0  0
    5.7548   -0.4834    0.0000 N   0  0  0  0  0  3  0  0  0  0  0  0
    4.6039   -1.1510    0.0000 C   0  0  0  0  0  4  0  0  0  0  0  0
    4.6039   -2.4861    0.0000 O   0  0  0  0  0  2  0  0  0  0  0  0
    3.4529   -0.4834    0.0000 N   0  0  0  0  0  3  0  0  0  0  0  0
    2.3019   -1.1510    0.0000 C   0  0  0  0  0  4  0  0  0  0  0  0
    1.1510   -0.4834    0.0000 C   0  0  0  0  0  4  0  0  0  0  0  0
    0.0000   -1.1510    0.0000 C   0  0  0  0  0  4  0  0  0  0  0  0
  1  2  2  0  0  0  0 
  2  3  2  0  0  0  0 
  2  4  1  0  0  0  0 
  2 11  1  0  0  0  0 
  4  5  2  0  0  0  0 
  4  9  1  0  0  0  0 
  5  6  1  0  0  0  0 
  6  7  2  0  0  0  0 
  7  8  1  0  0  0  0 
  7 10  1  0  0  0  0 
  8  9  2  0  0  0  0 
 11 12  1  0  0  0  0 
 12 13  2  0  0  0  0 
 12 14  1  0  0  0  0 
 14 15  1  0  0  0  0 
 15 16  1  0  0  0  0 
 16 17  1  0  0  0  0 
M  END
> <CDK Fingerprint>
AIAAIAAAAAIQAECAAQAAAAEAAAAAEAAAAAAQACABAAAACeBAAQCCAggAMAAAAQAgAEAgIhAACEAIAADAAcEhgAAAIAAAEQAQYAAIIAAQgAAgAAqgAAAQAQEAAAAAAQAgAEAAwCIEAAAAAhIAGAEAkCAAAIFgICABAAAAAoJEAA==

> <ActivityOutcome_CPDBAS_Rat>
inactive

$$$$

  CDK     0721101958

 18 20  0  0  0  0  0  0  0  0999 V2000
    3.4563   -5.3227    0.0000 O   0  0  0  0  0  2  0  0  0  0  0  0
    3.4563   -3.9955    0.0000 C   0  0  0  0  0  4  0  0  0  0  0  0
    2.3019   -3.3249    0.0000 C   0  0  0  0  0  4  0  0  0  0  0  0
    2.3019   -1.9977    0.0000 C   0  0  0  0  0  4  0  0  0  0  0  0
    1.1544   -1.3341    0.0000 C   0  0  0  0  0  4  0  0  0  0  0  0
    0.0000   -1.9977    0.0000 C   0  0  0  0  0  4  0  0  0  0  0  0
    0.0000   -3.3249    0.0000 C   0  0  0  0  0  4  0  0  0  0  0  0
    1.1544   -3.9955    0.0000 C   0  0  0  0  0  4  0  0  0  0  0  0
    1.1544   -5.3227    0.0000 O   0  0  0  0  0  2  0  0  0  0  0  0
    3.4563   -1.3341    0.0000 C   0  0  0  0  0  4  0  0  0  0  0  0
    3.4563    0.0000    0.0000 O   0  0  0  0  0  2  0  0  0  0  0  0
    4.6107   -1.9977    0.0000 C   0  0  0  0  0  4  0  0  0  0  0  0
    5.7582   -1.3341    0.0000 C   0  0  0  0  0  4  0  0  0  0  0  0
    6.9126   -1.9977    0.0000 C   0  0  0  0  0  4  0  0  0  0  0  0
    6.9126   -3.3249    0.0000 C   0  0  0  0  0  4  0  0  0  0  0  0
    5.7582   -3.9955    0.0000 C   0  0  0  0  0  4  0  0  0  0  0  0
    4.6107   -3.3249    0.0000 C   0  0  0  0  0  4  0  0  0  0  0  0
    5.7582   -5.3227    0.0000 O   0  0  0  0  0  2  0  0  0  0  0  0
  1  2  2  0  0  0  0 
  2  3  1  0  0  0  0 
  2 17  1  0  0  0  0 
  3  4  2  0  0  0  0 
  3  8  1  0  0  0  0 
  4  5  1  0  0  0  0 
  4 10  1  0  0  0  0 
  5  6  2  0  0  0  0 
  6  7  1  0  0  0  0 
  7  8  2  0  0  0  0 
  8  9  1  0  0  0  0 
 10 11  2  0  0  0  0 
 10 12  1  0  0  0  0 
 12 13  2  0  0  0  0 
 12 17  1  0  0  0  0 
 13 14  1  0  0  0  0 
 14 15  2  0  0  0  0 
 15 16  1  0  0  0  0 
 16 17  2  0  0  0  0 
 16 18  1  0  0  0  0 
M  END
> <CDK Fingerprint>
CAAAAAAAAYGCAIgAABABACAAAAAAAAAAAAAARAh4AAJpAQABhIAAAAFCAAEAIAAEIAABAABAAQIQQAAgAAQGCAEABABBCAAAIAAAYoAIAAAAwACAAACAAAAACIAAIABIAEAgIAACAAAGQCAEEAAAFACAEAhBKAAAAAAAAAA=

> <ActivityOutcome_CPDBAS_Rat>
active

> <TD50_Rat_mmol>
1.02

$$$$

  CDK     0721101958

 17 17  0  0  0  0  0  0  0  0999 V2000
    2.5059   -8.8123    0.0000 C   0  0  0  0  0  4  0  0  0  0  0  0
    3.7901   -8.4677    0.0000 N   0  0  0  0  0  3  0  0  0  0  0  0
    2.1613  -10.0965    0.0000 N   0  0  0  0  0  3  0  0  0  0  0  0
    1.5662   -7.8726    0.0000 N   0  0  0  0  0  3  0  0  0  0  0  0
    4.7298   -9.4074    0.0000 C   0  0  0  0  0  4  0  0  0  0  0  0
    5.6695  -10.3471    0.0000 N   0  0  0  0  0  3  0  0  0  0  0  0
    0.8771  -10.4411    0.0000 C   0  0  0  0  0  4  0  0  0  0  0  0
    1.9107   -6.5883    0.0000 C   0  0  0  0  0  4  0  0  0  0  0  0
    0.9710   -5.6486    0.0000 C   0  0  0  0  0  4  0  0  0  0  0  0
    1.3156   -4.3644    0.0000 S   0  0  0  0  0  2  0  0  0  0  0  0
    0.3759   -3.4142    0.0000 C   0  0  0  0  0  4  0  0  0  0  0  0
    0.0000   -1.0754    0.0000 N   0  0  0  0  0  3  0  0  0  0  0  0
    2.0465   -0.4072    0.0000 N   0  0  0  0  0  3  0  0  0  0  0  0
    0.7831    0.0000    0.0000 C   0  0  0  0  0  4  0  0  0  0  0  0
    0.7831   -2.1509    0.0000 C   0  0  0  0  0  4  0  0  0  0  0  0
    2.0465   -1.7437    0.0000 C   0  0  0  0  0  4  0  0  0  0  0  0
    3.1219   -2.5267    0.0000 C   0  0  0  0  0  4  0  0  0  0  0  0
  1  2  2  0  0  0  0 
  1  3  1  0  0  0  0 
  1  4  1  0  0  0  0 
  2  5  1  0  0  0  0 
  3  7  1  0  0  0  0 
  4  8  1  0  0  0  0 
  5  6  3  0  0  0  0 
  8  9  1  0  0  0  0 
  9 10  1  0  0  0  0 
 10 11  1  0  0  0  0 
 11 15  1  0  0  0  0 
 12 14  2  0  0  0  0 
 12 15  1  0  0  0  0 
 13 14  1  0  0  0  0 
 13 16  1  0  0  0  0 
 15 16  2  0  0  0  0 
 16 17  1  0  0  0  0 
M  END
> <CDK Fingerprint>
IAACAIBCg6IQgGQAEAAIAABQAIBAgAQQAgBQAACAAAAAAWArAAGkAAAAQQAkAABwBBgEAEGAAUAIAACAAAAJAQAhAASAAQECEAAQAIAAgIAQBQCEAIAAcAQAQAAEgAgAAAAUAABLhAACAECCQAEEACBAAgAAgCABAAIYCAJAAw==

> <ActivityOutcome_CPDBAS_Rat>
inactive

$$$$

  CDK     0721101958

 10 10  0  0  0  0  0  0  0  0999 V2000
    6.9112   -1.9973    0.0000 O   0  0  0  0  0  2  0  0  0  0  0  0
    5.7570   -2.6608    0.0000 C   0  0  0  0  0  4  0  0  0  0  0  0
    4.6098   -1.9973    0.0000 C   0  0  0  0  0  4  0  0  0  0  0  0
    3.4556   -2.6608    0.0000 C   0  0  0  0  0  4  0  0  0  0  0  0
    2.3014   -1.9973    0.0000 C   0  0  0  0  0  4  0  0  0  0  0  0
    2.3014   -0.6635    0.0000 C   0  0  0  0  0  4  0  0  0  0  0  0
    1.1542    0.0000    0.0000 C   0  0  0  0  0  4  0  0  0  0  0  0
    0.0000   -0.6635    0.0000 C   0  0  0  0  0  4  0  0  0  0  0  0
    0.0000   -1.9973    0.0000 C   0  0  0  0  0  4  0  0  0  0  0  0
    1.1542   -2.6608    0.0000 C   0  0  0  0  0  4  0  0  0  0  0  0
  1  2  2  0  0  0  0 
  2  3  1  0  0  0  0 
  3  4  2  0  0  0  0 
  4  5  1  0  0  0  0 
  5  6  2  0  0  0  0 
  5 10  1  0  0  0  0 
  6  7  1  0  0  0  0 
  7  8  2  0  0  0  0 
  8  9  1  0  0  0  0 
  9 10  2  0  0  0  0 
M  END
> <CDK Fingerprint>
QAAAEAAAAAAAAAAAAAAAEAAAAAAAIAAAAAAAAAgAAAIAAGAAQAAAAAAAAAAAABAgAAAAAAAQAEAAAAAAAAAAAAQAAABACBAAAAAAAAAAAAAAAAAAAAgAAIAAAAACgAAgAEAAQCAAAAAAEAJAAAgAAAAAAIAwCAAAAAAAAAAAAA==

> <ActivityOutcome_CPDBAS_Rat>
inactive

$$$$

  CDK     0721101958

 18 19  0  0  0  0  0  0  0  0999 V2000
   10.7602   -3.1958    0.0000 Cl  0  0  0  0  0  1  0  0  0  0  0  0
    9.4474   -2.9698    0.0000 C   0  0  0  0  0  4  0  0  0  0  0  0
    8.2961   -2.3027    0.0000 C   0  0  0  0  0  4  0  0  0  0  0  0
    6.9618   -2.3027    0.0000 C   0  0  0  0  0  4  0  0  0  0  0  0
    6.2947   -3.4540    0.0000 C   0  0  0  0  0  4  0  0  0  0  0  0
    4.9712   -3.4540    0.0000 C   0  0  0  0  0  4  0  0  0  0  0  0
    4.3041   -2.3027    0.0000 C   0  0  0  0  0  4  0  0  0  0  0  0
    4.9712   -1.1513    0.0000 C   0  0  0  0  0  4  0  0  0  0  0  0
    6.2947   -1.1513    0.0000 C   0  0  0  0  0  4  0  0  0  0  0  0
    2.9698   -2.3027    0.0000 O   0  0  0  0  0  2  0  0  0  0  0  0
    2.3027   -1.1513    0.0000 C   0  0  0  0  0  4  0  0  0  0  0  0
    1.1513   -1.8185    0.0000 C   0  0  0  0  0  4  0  0  0  0  0  0
    1.1513   -3.1420    0.0000 O   0  0  0  0  0  2  0  0  0  0  0  0
    0.0000   -1.1513    0.0000 O   0  0  0  0  0  2  0  0  0  0  0  0
    1.6355    0.0000    0.0000 C   0  0  0  0  0  4  0  0  0  0  0  0
    3.4540   -0.4842    0.0000 C   0  0  0  0  0  4  0  0  0  0  0  0
    9.4474   -1.6355    0.0000 C   0  0  0  0  0  4  0  0  0  0  0  0
    8.9955   -4.2180    0.0000 Cl  0  0  0  0  0  1  0  0  0  0  0  0
  1  2  1  0  0  0  0 
  2  3  1  0  0  0  0 
  2 17  1  0  0  0  0 
  2 18  1  0  0  0  0 
  3  4  1  0  0  0  0 
  3 17  1  0  0  0  0 
  4  5  2  0  0  0  0 
  4  9  1  0  0  0  0 
  5  6  1  0  0  0  0 
  6  7  2  0  0  0  0 
  7  8  1  0  0  0  0 
  7 10  1  0  0  0  0 
  8  9  2  0  0  0  0 
 10 11  1  0  0  0  0 
 11 12  1  0  0  0  0 
 11 15  1  0  0  0  0 
 11 16  1  0  0  0  0 
 12 13  2  0  0  0  0 
 12 14  1  0  0  0  0 
M  END
> <CDK Fingerprint>
BAAAAAACAAAAAABSABAARAAIAAAAAAAAgAACIAAAAIAIAALhAAAAAAAAAA0AIAAYIAIgKAaAAAhAAAAIQAAAAwAGGAAgAIAARCAABAAAAIAAEAgAAAgEAICAFCAIAsAAIADCAEAgICEAAAACQBAEAYAAHACAUCAEAAAAAAAgAAA=

> <ActivityOutcome_CPDBAS_Rat>
active

> <TD50_Rat_mmol>
0.00681

$$$$

  CDK     0721101958

 13 12  0  0  0  0  0  0  0  0999 V2000
    0.9738   -1.9926    0.0000 O   0  0  0  0  0  2  0  0  0  0  0  0
    2.3021   -1.9926    0.0000 C   0  0  0  0  0  4  0  0  0  0  0  0
    2.3021   -3.3265    0.0000 C   0  0  0  0  0  4  0  0  0  0  0  0
    1.1539   -3.9907    0.0000 C   0  0  0  0  0  4  0  0  0  0  0  0
    1.1539   -5.3191    0.0000 O   0  0  0  0  0  2  0  0  0  0  0  0
    0.0000   -3.3265    0.0000 O   0  0  0  0  0  2  0  0  0  0  0  0
    3.6361   -1.9926    0.0000 C   0  0  0  0  0  4  0  0  0  0  0  0
    4.3003   -3.1464    0.0000 C   0  0  0  0  0  4  0  0  0  0  0  0
    3.6361   -4.3003    0.0000 O   0  0  0  0  0  2  0  0  0  0  0  0
    5.6287   -3.1464    0.0000 O   0  0  0  0  0  2  0  0  0  0  0  0
    2.3021   -0.6642    0.0000 C   0  0  0  0  0  4  0  0  0  0  0  0
    1.1539    0.0000    0.0000 O   0  0  0  0  0  2  0  0  0  0  0  0
    3.4560    0.0000    0.0000 O   0  0  0  0  0  2  0  0  0  0  0  0
  1  2  1  0  0  0  0 
  2  3  1  0  0  0  0 
  2  7  1  0  0  0  0 
  2 11  1  0  0  0  0 
  3  4  1  0  0  0  0 
  4  5  2  0  0  0  0 
  4  6  1  0  0  0  0 
  7  8  1  0  0  0  0 
  8  9  2  0  0  0  0 
  8 10  1  0  0  0  0 
 11 12  2  0  0  0  0 
 11 13  1  0  0  0  0 
M  END
> <CDK Fingerprint>
AgAAAAAAAAAAAAAAAAAAAAAAAAAABQEAYAAAAgAAAAAAAAAAGCAAIgAAAAAAAAAAIkAgAAAAAAAAAAAAAAAAAAAAAAAAAAAAAAAAgAAAABAAAAAAAAAAQAAAAAAAAAAAAAAQAAGAAAAAAFAwAAAAAAACAAAA

> <ActivityOutcome_CPDBAS_Rat>
inactive

$$$$

  CDK     0721101958

 18 19  0  0  0  0  0  0  0  0999 V2000
    4.6531    0.0000    0.0000 C   0  0  0  0  0  4  0  0  0  0  0  0
    3.9906   -1.1493    0.0000 C   0  0  0  0  0  4  0  0  0  0  0  0
    4.6531   -2.2986    0.0000 C   0  0  0  0  0  4  0  0  0  0  0  0
    3.9906   -3.4559    0.0000 C   0  0  0  0  0  4  0  0  0  0  0  0
    4.6531   -4.6052    0.0000 C   0  0  0  0  0  4  0  0  0  0  0  0
    5.9859   -4.6052    0.0000 O   0  0  0  0  0  2  0  0  0  0  0  0
    6.6484   -3.4559    0.0000 C   0  0  0  0  0  4  0  0  0  0  0  0
    5.9859   -2.2986    0.0000 C   0  0  0  0  0  4  0  0  0  0  0  0
    6.6484   -1.1493    0.0000 C   0  0  0  0  0  4  0  0  0  0  0  0
    7.9813   -3.4559    0.0000 C   0  0  0  0  0  4  0  0  0  0  0  0
    2.6578   -3.4559    0.0000 C   0  0  0  0  0  4  0  0  0  0  0  0
    1.9953   -2.2986    0.0000 C   0  0  0  0  0  4  0  0  0  0  0  0
    2.6578   -1.1493    0.0000 C   0  0  0  0  0  4  0  0  0  0  0  0
    1.9953    0.0000    0.0000 O   0  0  0  0  0  2  0  0  0  0  0  0
    0.6624   -2.2986    0.0000 C   0  0  0  0  0  4  0  0  0  0  0  0
    0.0000   -1.1493    0.0000 O   0  0  0  0  0  2  0  0  0  0  0  0
    0.0000   -3.4559    0.0000 O   0  0  0  0  0  2  0  0  0  0  0  0
    1.9953   -4.6052    0.0000 O   0  0  0  0  0  2  0  0  0  0  0  0
  1  2  1  0  0  0  0 
  2  3  2  0  0  0  0 
  2 13  1  0  0  0  0 
  3  4  1  0  0  0  0 
  3  8  1  0  0  0  0 
  4  5  2  0  0  0  0 
  4 11  1  0  0  0  0 
  5  6  1  0  0  0  0 
  6  7  1  0  0  0  0 
  7  8  1  0  0  0  0 
  7 10  1  6  0  0  0 
  8  9  1  1  0  0  0 
 11 12  2  0  0  0  0 
 11 18  1  0  0  0  0 
 12 13  1  0  0  0  0 
 12 15  1  0  0  0  0 
 13 14  2  0  0  0  0 
 15 16  2  0  0  0  0 
 15 17  1  0  0  0  0 
M  END
> <CDK Fingerprint>
QACBABMAIgQiKQIAAAAAAUAIBokEZADAAAgEUAEFIokBrOIAAwIACEAhAEEQARAoEigAGBAQEEAIECJEZAQAAEAAIYVEMAAJLQBAUqABQxBAABAEAQBQBEAwAAAAAIAJAEAAIAAAICEAAEAAEBQDXAAgAAT4OABAACJAECAAKA==

> <ActivityOutcome_CPDBAS_Rat>
active

> <TD50_Rat_mmol>
0.0299

$$$$

  CDK     0721101958

 29 31  0  0  0  0  0  0  0  0999 V2000
    3.4246   -6.0145    0.0000 O   0  0  0  0  0  2  0  0  0  0  0  0
    3.3604   -7.6733    0.0000 C   0  0  0  0  0  4  0  0  0  0  0  0
    2.5792   -8.7435    0.0000 C   0  0  0  0  0  4  0  0  0  0  0  0
    3.3604   -9.8030    0.0000 C   0  0  0  0  0  4  0  0  0  0  0  0
    4.6018   -9.3856    0.0000 N   0  0  0  0  0  4  0  0  0  0  0  0
    5.8433   -9.8030    0.0000 C   0  0  0  0  0  4  0  0  0  0  0  0
    6.6138   -8.7435    0.0000 C   0  0  0  0  0  4  0  0  0  0  0  0
    5.8433   -7.6733    0.0000 C   0  0  0  0  0  4  0  0  0  0  0  0
    5.8433   -6.0145    0.0000 C   0  0  0  0  0  4  0  0  0  0  0  0
    6.8385   -5.3617    0.0000 O   0  0  0  0  0  2  0  0  0  0  0  0
    6.8385   -4.0667    0.0000 C   0  0  0  0  0  4  0  0  0  0  0  0
    5.6827   -3.4032    0.0000 C   0  0  0  0  0  4  0  0  0  0  0  0
    4.5590   -4.0667    0.0000 C   0  0  0  0  0  4  0  0  0  0  0  0
    3.4246   -3.4032    0.0000 C   0  0  0  0  0  4  0  0  0  0  0  0
    2.2795   -4.0667    0.0000 C   0  0  0  0  0  4  0  0  0  0  0  0
    2.2795   -5.3617    0.0000 C   0  0  0  0  0  4  0  0  0  0  0  0
    4.6018   -8.0693    0.0000 C   0  0  0  0  0  4  0  0  0  0  0  0
    4.6018   -6.7743    0.0000 O   0  0  0  0  0  1  0  0  0  0  0  0
    4.6018  -10.7019    0.0000 C   0  0  0  0  0  4  0  0  0  0  0  0
    7.9622   -3.4032    0.0000 O   0  0  0  0  0  2  0  0  0  0  0  0
    6.3463   -2.2688    0.0000 O   0  0  0  0  0  2  0  0  0  0  0  0
    5.6827   -1.1451    0.0000 C   0  0  0  0  0  4  0  0  0  0  0  0
    4.3664   -1.1451    0.0000 O   0  0  0  0  0  2  0  0  0  0  0  0
    5.0299   -2.2688    0.0000 C   0  0  0  0  0  4  0  0  0  0  0  0
    4.5590   -5.3617    0.0000 C   0  0  0  0  0  4  0  0  0  0  0  0
    1.1451   -3.4032    0.0000 C   0  0  0  0  0  4  0  0  0  0  0  0
    0.0000   -4.0667    0.0000 C   0  0  0  0  0  4  0  0  0  0  0  0
    1.1451   -6.0145    0.0000 O   0  0  0  0  0  2  0  0  0  0  0  0
    6.3463    0.0000    0.0000 C   0  0  0  0  0  4  0  0  0  0  0  0
  1 16  1  0  0  0  0 
  2  1  1  1  0  0  0 
  2  3  1  0  0  0  0 
  2 17  1  0  0  0  0 
  3  4  1  0  0  0  0 
  4  5  1  0  0  0  0 
  5  6  1  0  0  0  0 
  5 17  1  0  0  0  0 
  5 19  1  0  0  0  0 
  6  7  1  0  0  0  0 
  7  8  2  0  0  0  0 
  8  9  1  0  0  0  0 
  8 17  1  0  0  0  0 
  9 10  1  0  0  0  0 
 10 11  1  0  0  0  0 
 11 12  1  0  0  0  0 
 11 20  2  0  0  0  0 
 12 13  1  0  0  0  0 
 12 24  1  1  0  0  0 
 12 21  1  6  0  0  0 
 13 14  1  0  0  0  0 
 13 25  1  1  0  0  0 
 14 15  2  0  0  0  0 
 15 16  1  0  0  0  0 
 15 26  1  0  0  0  0 
 16 28  2  0  0  0  0 
 17 18  1  0  0  0  0 
 21 22  1  0  0  0  0 
 22 29  1  0  0  0  0 
 22 23  2  0  0  0  0 
 26 27  2  0  0  0  0 
M  CHG  1   5   1
M  CHG  1  18  -1
M  END
> <CDK Fingerprint>
AtC8JUlDBi1uIQiCJIMBQxMURgINDDEC6TAEBcsAACASEwBixIwIAABioAlIAADZbgYyJkyQECIhAUAhxUQQQBAQBAWOUgHAQAQAIUagUekJQAhTIGREUGAhMwQAAEIohQlKRxABAAmFiAggQBAgB7VACYQE+HvAGEroyMBCgCg=

> <ActivityOutcome_CPDBAS_Rat>
active

> <TD50_Rat_mmol>
0.00123

$$$$

  CDK     0721101958

 21 22  0  0  0  0  0  0  0  0999 V2000
   12.5806   -1.3138    0.0000 C   0  0  0  0  0  4  0  0  0  0  0  0
   11.2668   -1.3138    0.0000 C   0  0  0  0  0  4  0  0  0  0  0  0
    9.9397   -1.3138    0.0000 O   0  0  0  0  0  2  0  0  0  0  0  0
    5.3083   -2.4683    0.0000 C   0  0  0  0  0  4  0  0  0  0  0  0
    3.9945   -2.4683    0.0000 C   0  0  0  0  0  4  0  0  0  0  0  0
   13.2574   -0.1592    0.0000 O   0  0  0  0  0  2  0  0  0  0  0  0
    3.3177   -1.3138    0.0000 C   0  0  0  0  0  4  0  0  0  0  0  0
    5.9718   -1.3138    0.0000 C   0  0  0  0  0  4  0  0  0  0  0  0
    3.3177   -3.6229    0.0000 C   0  0  0  0  0  4  0  0  0  0  0  0
    5.9585   -3.6229    0.0000 C   0  0  0  0  0  4  0  0  0  0  0  0
   13.2707   -2.4683    0.0000 O   0  0  0  0  0  2  0  0  0  0  0  0
    9.2762   -2.4683    0.0000 C   0  0  0  0  0  4  0  0  0  0  0  0
    1.3403   -2.4683    0.0000 C   0  0  0  0  0  4  0  0  0  0  0  0
    7.9359   -2.4683    0.0000 C   0  0  0  0  0  4  0  0  0  0  0  0
    1.9906   -1.3138    0.0000 C   0  0  0  0  0  4  0  0  0  0  0  0
    1.9906   -3.6229    0.0000 C   0  0  0  0  0  4  0  0  0  0  0  0
    7.2989   -3.6229    0.0000 C   0  0  0  0  0  4  0  0  0  0  0  0
    7.2989   -1.3138    0.0000 C   0  0  0  0  0  4  0  0  0  0  0  0
    0.0000   -2.4683    0.0000 Cl  0  0  0  0  0  1  0  0  0  0  0  0
   11.2668   -2.6674    0.0000 C   0  0  0  0  0  4  0  0  0  0  0  0
   11.2668    0.0000    0.0000 C   0  0  0  0  0  4  0  0  0  0  0  0
  1  2  1  0  0  0  0 
  1  6  2  0  0  0  0 
  1 11  1  0  0  0  0 
  2  3  1  0  0  0  0 
  2 20  1  0  0  0  0 
  2 21  1  0  0  0  0 
  3 12  1  0  0  0  0 
  4  8  2  0  0  0  0 
  4  5  1  0  0  0  0 
  4 10  1  0  0  0  0 
  5  7  1  0  0  0  0 
  5  9  2  0  0  0  0 
  7 15  2  0  0  0  0 
  8 18  1  0  0  0  0 
  9 16  1  0  0  0  0 
 10 17  2  0  0  0  0 
 12 14  1  0  0  0  0 
 13 16  2  0  0  0  0 
 13 19  1  0  0  0  0 
 13 15  1  0  0  0  0 
 14 17  1  0  0  0  0 
 14 18  2  0  0  0  0 
M  END
> <CDK Fingerprint>
AgQAIAAAAAAABhACAAAAAAABAAABAAAAgAAAgAIAEAAAQADgAIAAAAAAAAAAAAAYIAIBAAAABCBAAAAAQAAAAQAcAAAAAAAAAAAAAAIAAEAAAgAAACAAACGhEAAAIMAQIABAAMQgBAEQAEUCQAlACYCAAAyA0AAAEAkoIAAAAAI=

> <ActivityOutcome_CPDBAS_Rat>
inactive

$$$$

  CDK     0721101958

 16 16  0  0  0  0  0  0  0  0999 V2000
    4.6068   -5.3201    0.0000 C   0  0  0  0  0  4  0  0  0  0  0  0
    4.6068   -3.9880    0.0000 C   0  0  0  0  0  4  0  0  0  0  0  0
    4.6068   -2.6644    0.0000 O   0  0  0  0  0  2  0  0  0  0  0  0
    3.4551   -1.9940    0.0000 C   0  0  0  0  0  4  0  0  0  0  0  0
    2.3034   -2.6644    0.0000 C   0  0  0  0  0  4  0  0  0  0  0  0
    1.1517   -1.9940    0.0000 C   0  0  0  0  0  4  0  0  0  0  0  0
    1.1517   -0.6704    0.0000 C   0  0  0  0  0  4  0  0  0  0  0  0
    2.3034    0.0000    0.0000 C   0  0  0  0  0  4  0  0  0  0  0  0
    3.4551   -0.6704    0.0000 C   0  0  0  0  0  4  0  0  0  0  0  0
    0.0000    0.0000    0.0000 Cl  0  0  0  0  0  1  0  0  0  0  0  0
    5.9390   -3.9880    0.0000 C   0  0  0  0  0  4  0  0  0  0  0  0
    6.6008   -5.1397    0.0000 O   0  0  0  0  0  2  0  0  0  0  0  0
    6.6008   -2.8363    0.0000 O   0  0  0  0  0  2  0  0  0  0  0  0
    7.9329   -2.8363    0.0000 C   0  0  0  0  0  4  0  0  0  0  0  0
    8.5947   -1.6846    0.0000 C   0  0  0  0  0  4  0  0  0  0  0  0
    3.2746   -3.9880    0.0000 C   0  0  0  0  0  4  0  0  0  0  0  0
  1  2  1  0  0  0  0 
  2  3  1  0  0  0  0 
  2 11  1  0  0  0  0 
  2 16  1  0  0  0  0 
  3  4  1  0  0  0  0 
  4  5  2  0  0  0  0 
  4  9  1  0  0  0  0 
  5  6  1  0  0  0  0 
  6  7  2  0  0  0  0 
  7  8  1  0  0  0  0 
  7 10  1  0  0  0  0 
  8  9  2  0  0  0  0 
 11 12  2  0  0  0  0 
 11 13  1  0  0  0  0 
 13 14  1  0  0  0  0 
 14 15  1  0  0  0  0 
M  END
> <CDK Fingerprint>
BIAAAAIAAAAAAABCABAABAAAAAAAAAAAgAAAAYAAAIAIAALhAIAAAAAgAAgAAABYIAIgKACAAABgAAAIQAAAAQACEAAAAAAAQQAABAAAAIAAAAAAACAAQIEBEAAIAEAAIABAAIAgJCEAAAESAAAAAYAAAACAUAAAAAAAAAAiBAA=

> <ActivityOutcome_CPDBAS_Rat>
active

> <TD50_Rat_mmol>
0.696

$$$$

  CDK     0721101958

 22 26  0  0  0  0  0  0  0  0999 V2000
    2.2855   -5.2669    0.0000 C   0  0  0  0  0  4  0  0  0  0  0  0
    2.2855   -3.9383    0.0000 C   0  0  0  0  0  4  0  0  0  0  0  0
    3.4005   -5.9233    0.0000 C   0  0  0  0  0  4  0  0  0  0  0  0
    1.1388   -3.2819    0.0000 C   0  0  0  0  0  4  0  0  0  0  0  0
    1.1388   -5.9233    0.0000 C   0  0  0  0  0  4  0  0  0  0  0  0
    0.3796   -4.5630    0.0000 O   0  0  0  0  0  2  0  0  0  0  0  0
    4.5314   -5.2432    0.0000 C   0  0  0  0  0  4  0  0  0  0  0  0
    3.4005   -3.2819    0.0000 C   0  0  0  0  0  4  0  0  0  0  0  0
    3.4005   -7.2281    0.0000 C   0  0  0  0  0  4  0  0  0  0  0  0
    4.5314   -3.9383    0.0000 C   0  0  0  0  0  4  0  0  0  0  0  0
    5.1641   -5.8521    0.0000 N   0  0  0  0  0  3  0  0  0  0  0  0
    2.2855   -6.5717    0.0000 C   0  0  0  0  0  4  0  0  0  0  0  0
    2.2855   -7.8845    0.0000 C   0  0  0  0  0  4  0  0  0  0  0  0
    1.1388   -7.2518    0.0000 C   0  0  0  0  0  4  0  0  0  0  0  0
    1.1388   -1.9850    0.0000 C   0  0  0  0  0  4  0  0  0  0  0  0
    4.7845   -6.5717    0.0000 C   0  0  0  0  0  4  0  0  0  0  0  0
    3.4005   -1.9850    0.0000 C   0  0  0  0  0  4  0  0  0  0  0  0
    2.2855   -1.3128    0.0000 C   0  0  0  0  0  4  0  0  0  0  0  0
    0.0395   -7.9082    0.0000 O   0  0  0  0  0  2  0  0  0  0  0  0
    0.0000   -1.3128    0.0000 O   0  0  0  0  0  2  0  0  0  0  0  0
    6.3898   -5.8521    0.0000 C   0  0  0  0  0  4  0  0  0  0  0  0
    0.0000    0.0000    0.0000 C   0  0  0  0  0  4  0  0  0  0  0  0
  1  2  1  0  0  0  0 
  1  3  1  0  0  0  0 
  1  5  1  0  0  0  0 
  1 12  1  1  0  0  0 
  2  4  1  0  0  0  0 
  2  8  2  0  0  0  0 
  3  7  1  0  0  0  0 
  3  9  1  0  0  0  0 
  4 15  2  0  0  0  0 
  4  6  1  0  0  0  0 
  5  6  1  6  0  0  0 
  5 14  1  0  0  0  0 
  7 10  1  0  0  0  0 
  7 11  1  1  0  0  0 
  8 17  1  0  0  0  0 
  8 10  1  0  0  0  0 
  9 13  2  0  0  0  0 
 11 16  1  0  0  0  0 
 11 21  1  0  0  0  0 
 12 16  1  0  0  0  0 
 13 14  1  0  0  0  0 
 14 19  1  6  0  0  0 
 15 20  1  0  0  0  0 
 15 18  1  0  0  0  0 
 17 18  2  0  0  0  0 
 20 22  1  0  0  0  0 
M  END
> <CDK Fingerprint>
ALxAEaUEIwGAEjgCkoGxgAVBiIInjQRQqOaGB4Z7NxUJebsK4QJUCIjhjIQMTjkAnCFWMyBZsRQgQADnacBkBYMQDhwkRjQERwydahTrIAXpQRcJwOmCwEDL1RAU6E7IIGoFikDKd3IoAjgoJ3deBBIcAhxkoKi8FptBdkQBako6

> <ActivityOutcome_CPDBAS_Rat>
inactive

$$$$

  CDK     0721101958

 27 29  0  0  0  0  0  0  0  0999 V2000
    5.7649   -8.4928    0.0000 C   0  0  0  0  0  4  0  0  0  0  0  0
    5.7649   -7.1565    0.0000 O   0  0  0  0  0  2  0  0  0  0  0  0
    4.6053   -6.4938    0.0000 C   0  0  0  0  0  4  0  0  0  0  0  0
    3.4568   -7.1565    0.0000 C   0  0  0  0  0  4  0  0  0  0  0  0
    2.3082   -6.4938    0.0000 C   0  0  0  0  0  4  0  0  0  0  0  0
    2.3082   -5.1575    0.0000 C   0  0  0  0  0  4  0  0  0  0  0  0
    3.4568   -4.4949    0.0000 C   0  0  0  0  0  4  0  0  0  0  0  0
    4.6053   -5.1575    0.0000 C   0  0  0  0  0  4  0  0  0  0  0  0
    5.8533   -4.6716    0.0000 C   0  0  0  0  0  4  0  0  0  0  0  0
    6.6043   -5.7760    0.0000 C   0  0  0  0  0  4  0  0  0  0  0  0
    7.9075   -5.8533    0.0000 C   0  0  0  0  0  4  0  0  0  0  0  0
    8.8462   -4.9146    0.0000 C   0  0  0  0  0  4  0  0  0  0  0  0
   10.1052   -5.2901    0.0000 O   0  0  0  0  0  2  0  0  0  0  0  0
   11.0440   -4.3513    0.0000 C   0  0  0  0  0  4  0  0  0  0  0  0
    8.6364   -3.5893    0.0000 C   0  0  0  0  0  4  0  0  0  0  0  0
    9.7297   -2.8383    0.0000 O   0  0  0  0  0  2  0  0  0  0  0  0
    7.4768   -2.9156    0.0000 C   0  0  0  0  0  4  0  0  0  0  0  0
    6.2398   -3.4015    0.0000 C   0  0  0  0  0  4  0  0  0  0  0  0
    5.4888   -2.3082    0.0000 C   0  0  0  0  0  4  0  0  0  0  0  0
    6.1625   -1.1486    0.0000 N   0  0  0  0  0  3  0  0  0  0  0  0
    5.4888    0.0000    0.0000 C   0  0  0  0  0  4  0  0  0  0  0  0
    4.1857   -2.2198    0.0000 C   0  0  0  0  0  4  0  0  0  0  0  0
    3.2469   -3.1696    0.0000 C   0  0  0  0  0  4  0  0  0  0  0  0
    1.1486   -7.1565    0.0000 O   0  0  0  0  0  2  0  0  0  0  0  0
    0.0000   -6.4938    0.0000 C   0  0  0  0  0  4  0  0  0  0  0  0
    3.4568   -8.4928    0.0000 O   0  0  0  0  0  2  0  0  0  0  0  0
    2.3082   -9.1554    0.0000 C   0  0  0  0  0  4  0  0  0  0  0  0
  1  2  1  0  0  0  0 
  2  3  1  0  0  0  0 
  3  4  2  0  0  0  0 
  3  8  1  0  0  0  0 
  4  5  1  0  0  0  0 
  4 26  1  0  0  0  0 
  5  6  2  0  0  0  0 
  5 24  1  0  0  0  0 
  6  7  1  0  0  0  0 
  7  8  2  0  0  0  0 
  7 23  1  0  0  0  0 
  8  9  1  0  0  0  0 
  9 10  2  0  0  0  0 
  9 18  1  0  0  0  0 
 10 11  1  0  0  0  0 
 11 12  2  0  0  0  0 
 12 13  1  0  0  0  0 
 12 15  1  0  0  0  0 
 13 14  1  0  0  0  0 
 15 16  2  0  0  0  0 
 15 17  1  0  0  0  0 
 17 18  2  0  0  0  0 
 18 19  1  0  0  0  0 
 19 20  1  6  0  0  0 
 19 22  1  0  0  0  0 
 20 21  1  0  0  0  0 
 22 23  1  0  0  0  0 
 24 25  1  0  0  0  0 
 26 27  1  0  0  0  0 
M  END
> <CDK Fingerprint>
CNAGMBoyAAACGAGWEqG4RQXKywP8B9iBzAoiBFQIACwrAarjAFcCiLkAJ0fAIAOUYDKuIEkgEJBkQGAwxGAFyhAHmIOWzgRTDpgDBGugg8mgUAhBoQHIVEyQEERwDokkocDKIEIhITVDFBEGRx5cCvKQPMKEvCgUQgBsSLZiEDg=

> <ActivityOutcome_CPDBAS_Rat>
inactive

$$$$

  CDK     0721101958

 22 24  0  0  0  0  0  0  0  0999 V2000
    2.3046   -1.9911    0.0000 N   0  0  0  0  0  3  0  0  0  0  0  0
    3.4568   -1.3274    0.0000 C   0  0  0  0  0  4  0  0  0  0  0  0
    4.5999   -1.9911    0.0000 N   0  0  0  0  0  3  0  0  0  0  0  0
    4.5999   -3.3186    0.0000 C   0  0  0  0  0  4  0  0  0  0  0  0
    3.4568   -3.9915    0.0000 C   0  0  0  0  0  4  0  0  0  0  0  0
    3.4568   -5.3189    0.0000 C   0  0  0  0  0  4  0  0  0  0  0  0
    2.3046   -5.9826    0.0000 C   0  0  0  0  0  4  0  0  0  0  0  0
    1.1523   -5.3189    0.0000 C   0  0  0  0  0  4  0  0  0  0  0  0
    1.1523   -3.9915    0.0000 C   0  0  0  0  0  4  0  0  0  0  0  0
    2.3046   -3.3186    0.0000 C   0  0  0  0  0  4  0  0  0  0  0  0
    0.0000   -5.9826    0.0000 C   0  0  0  0  0  4  0  0  0  0  0  0
    5.7614   -3.9915    0.0000 C   0  0  0  0  0  4  0  0  0  0  0  0
    6.9137   -3.3186    0.0000 C   0  0  0  0  0  4  0  0  0  0  0  0
    8.0660   -3.9915    0.0000 C   0  0  0  0  0  4  0  0  0  0  0  0
    8.0660   -5.3189    0.0000 C   0  0  0  0  0  4  0  0  0  0  0  0
    6.9137   -5.9826    0.0000 C   0  0  0  0  0  4  0  0  0  0  0  0
    5.7614   -5.3189    0.0000 C   0  0  0  0  0  4  0  0  0  0  0  0
    9.2182   -3.3186    0.0000 O   0  0  0  0  0  2  0  0  0  0  0  0
    3.4568    0.0000    0.0000 O   0  0  0  0  0  2  0  0  0  0  0  0
    1.1523   -1.3274    0.0000 C   0  0  0  0  0  4  0  0  0  0  0  0
    0.0000   -1.9911    0.0000 C   0  0  0  0  0  4  0  0  0  0  0  0
    1.1523    0.0000    0.0000 C   0  0  0  0  0  4  0  0  0  0  0  0
  1  2  1  0  0  0  0 
  1 10  1  0  0  0  0 
  1 20  1  0  0  0  0 
  2  3  1  0  0  0  0 
  2 19  2  0  0  0  0 
  3  4  2  0  0  0  0 
  4  5  1  0  0  0  0 
  4 12  1  0  0  0  0 
  5  6  1  0  0  0  0 
  5 10  2  0  0  0  0 
  6  7  2  0  0  0  0 
  7  8  1  0  0  0  0 
  8  9  2  0  0  0  0 
  8 11  1  0  0  0  0 
  9 10  1  0  0  0  0 
 12 13  1  0  0  0  0 
 12 17  2  0  0  0  0 
 13 14  2  0  0  0  0 
 14 15  1  0  0  0  0 
 14 18  1  0  0  0  0 
 15 16  2  0  0  0  0 
 16 17  1  0  0  0  0 
 20 21  1  0  0  0  0 
 20 22  1  0  0  0  0 
M  END
> <CDK Fingerprint>
AIABhAAAIESgs1MARgCASAGQAQQgAAAByBEAAQAEFMAOCADLYQRQgYiAAwAAZgMBgGCABCAhAgIQwGEAAMAEIALCFVgAABABEAADACglgCCQCgAJAgAAAghCgCAQAACAAGAAQCBAICEAggASLsABFBAAEB4ghEACQQCCBgQAIhII

> <ActivityOutcome_CPDBAS_Rat>
inactive

$$$$

  CDK     0721101958

 22 23  0  0  0  0  0  0  0  0999 V2000
    2.3022   -0.1266    0.0000 C   0  0  0  0  0  4  0  0  0  0  0  0
    2.3022   -1.4619    0.0000 C   0  0  0  0  0  4  0  0  0  0  0  0
    1.1511   -2.1295    0.0000 C   0  0  0  0  0  4  0  0  0  0  0  0
    0.0000   -1.4619    0.0000 Cl  0  0  0  0  0  1  0  0  0  0  0  0
    1.1511   -3.4533    0.0000 C   0  0  0  0  0  4  0  0  0  0  0  0
    0.0000   -4.1209    0.0000 O   0  0  0  0  0  2  0  0  0  0  0  0
    2.3022   -4.1209    0.0000 O   0  0  0  0  0  2  0  0  0  0  0  0
    3.4533   -3.4533    0.0000 C   0  0  0  0  0  4  0  0  0  0  0  0
    3.4533   -2.1295    0.0000 C   0  0  0  0  0  4  0  0  0  0  0  0
    4.6044   -1.4619    0.0000 C   0  0  0  0  0  4  0  0  0  0  0  0
    5.7555   -2.1295    0.0000 C   0  0  0  0  0  4  0  0  0  0  0  0
    5.7555   -3.4533    0.0000 C   0  0  0  0  0  4  0  0  0  0  0  0
    4.6044   -4.1209    0.0000 C   0  0  0  0  0  4  0  0  0  0  0  0
    6.9066   -4.1209    0.0000 O   0  0  0  0  0  2  0  0  0  0  0  0
    8.0577   -3.4533    0.0000 P   0  0  0  0  0  5  0  0  0  0  0  0
    8.7254   -4.6044    0.0000 S   0  0  0  0  0  2  0  0  0  0  0  0
    7.3901   -2.3022    0.0000 O   0  0  0  0  0  2  0  0  0  0  0  0
    8.0577   -1.1511    0.0000 C   0  0  0  0  0  4  0  0  0  0  0  0
    7.3901    0.0000    0.0000 C   0  0  0  0  0  4  0  0  0  0  0  0
    9.2088   -2.7857    0.0000 O   0  0  0  0  0  2  0  0  0  0  0  0
   10.3599   -3.4533    0.0000 C   0  0  0  0  0  4  0  0  0  0  0  0
   11.5110   -2.7857    0.0000 C   0  0  0  0  0  4  0  0  0  0  0  0
  1  2  1  0  0  0  0 
  2  3  2  0  0  0  0 
  2  9  1  0  0  0  0 
  3  4  1  0  0  0  0 
  3  5  1  0  0  0  0 
  5  6  2  0  0  0  0 
  5  7  1  0  0  0  0 
  7  8  1  0  0  0  0 
  8  9  2  0  0  0  0 
  8 13  1  0  0  0  0 
  9 10  1  0  0  0  0 
 10 11  2  0  0  0  0 
 11 12  1  0  0  0  0 
 12 13  2  0  0  0  0 
 12 14  1  0  0  0  0 
 14 15  1  0  0  0  0 
 15 16  2  0  0  0  0 
 15 17  1  0  0  0  0 
 15 20  1  0  0  0  0 
 17 18  1  0  0  0  0 
 18 19  1  0  0  0  0 
 20 21  1  0  0  0  0 
 21 22  1  0  0  0  0 
M  END
> <CDK Fingerprint>
QAEhNiQAhABIEAIAMAAGEgAAAAQgIQiAAgQAhgoABEoCD+UYQAIAGAAITEIhgBAgDgBwA5AYoUQAQAzAAAYDAIcYKADUCBUIYAAGABQAgCAQAEBAEAgCAMUwnhKOgAApgE4gQCgkKAIAkAZJQgyQAZoUAIBwiAAFAgQBICEgAA==

> <ActivityOutcome_CPDBAS_Rat>
inactive

$$$$

  CDK     0721101958

 11 12  0  0  0  0  0  0  0  0999 V2000
    0.0000   -2.6606    0.0000 O   0  0  0  0  0  2  0  0  0  0  0  0
    1.1518   -1.9983    0.0000 C   0  0  0  0  0  4  0  0  0  0  0  0
    2.3036   -2.6606    0.0000 O   0  0  0  0  0  2  0  0  0  0  0  0
    3.4554   -1.9983    0.0000 C   0  0  0  0  0  4  0  0  0  0  0  0
    3.4554   -0.6680    0.0000 C   0  0  0  0  0  4  0  0  0  0  0  0
    4.6071    0.0000    0.0000 C   0  0  0  0  0  4  0  0  0  0  0  0
    5.7589   -0.6680    0.0000 C   0  0  0  0  0  4  0  0  0  0  0  0
    5.7589   -1.9983    0.0000 C   0  0  0  0  0  4  0  0  0  0  0  0
    4.6071   -2.6606    0.0000 C   0  0  0  0  0  4  0  0  0  0  0  0
    2.3036    0.0000    0.0000 C   0  0  0  0  0  4  0  0  0  0  0  0
    1.1518   -0.6680    0.0000 C   0  0  0  0  0  4  0  0  0  0  0  0
  1  2  2  0  0  0  0 
  2  3  1  0  0  0  0 
  2 11  1  0  0  0  0 
  3  4  1  0  0  0  0 
  4  5  2  0  0  0  0 
  4  9  1  0  0  0  0 
  5  6  1  0  0  0  0 
  5 10  1  0  0  0  0 
  6  7  2  0  0  0  0 
  7  8  1  0  0  0  0 
  8  9  2  0  0  0  0 
 10 11  2  0  0  0  0 
M  END
> <CDK Fingerprint>
QAAhEgAAhAAAEAIAEAAEEgAAAAQgIACAAAAAgAoABEIADmEQQAAAAAAICAAAgBAgAgAgAJAQAEAAAAgAAAACAAYYIABECBEAAAAEABAAgAAAAEAAAAgAAIAwmAICgAAhAEQAQCAgIAAAEAJBAAgAARIAAIBwCAAAAAAAACAgAA==

> <ActivityOutcome_CPDBAS_Rat>
active

> <TD50_Rat_mmol>
0.268

$$$$

  CDK     0721101958

 10 10  0  0  0  0  0  0  0  0999 V2000
    5.7597   -1.9986    0.0000 C   0  0  0  0  0  4  0  0  0  0  0  0
    4.6078   -2.6610    0.0000 O   0  0  0  0  0  2  0  0  0  0  0  0
    3.4558   -1.9986    0.0000 C   0  0  0  0  0  4  0  0  0  0  0  0
    2.3039   -2.6610    0.0000 C   0  0  0  0  0  4  0  0  0  0  0  0
    1.1519   -1.9986    0.0000 C   0  0  0  0  0  4  0  0  0  0  0  0
    1.1519   -0.6681    0.0000 C   0  0  0  0  0  4  0  0  0  0  0  0
    2.3039    0.0000    0.0000 C   0  0  0  0  0  4  0  0  0  0  0  0
    3.4558   -0.6681    0.0000 C   0  0  0  0  0  4  0  0  0  0  0  0
    0.0000    0.0000    0.0000 N   0  0  0  0  0  3  0  0  0  0  0  0
    0.0000   -2.6610    0.0000 C   0  0  0  0  0  4  0  0  0  0  0  0
  1  2  1  0  0  0  0 
  2  3  1  0  0  0  0 
  3  4  2  0  0  0  0 
  3  8  1  0  0  0  0 
  4  5  1  0  0  0  0 
  5  6  2  0  0  0  0 
  5 10  1  0  0  0  0 
  6  7  1  0  0  0  0 
  6  9  1  0  0  0  0 
  7  8  2  0  0  0  0 
M  END
> <CDK Fingerprint>
IgiAAgAAAAAAAAAAAAAAQIAAAAAABAACAAACYQAAAICAAAAAAAAAAGAAACAAAAAAQAAAAAAAAAAABhAAAAAAAAAAAgQAAACAAAEAAAAAAAAAgAAAAACAACAAAABAICAgAAAAAkAAAAAAAAAAgAAAAAAAAAAAIhAA

> <ActivityOutcome_CPDBAS_Rat>
active

> <TD50_Rat_mmol>
3.43

$$$$

  CDK     0721101958

 10 10  0  0  0  0  0  0  0  0999 V2000
    1.9929    0.0000    0.0000 N   0  0  0  0  0  3  0  0  0  0  0  0
    2.6571   -1.1490    0.0000 C   0  0  0  0  0  4  0  0  0  0  0  0
    3.9917   -1.1490    0.0000 C   0  0  0  0  0  4  0  0  0  0  0  0
    4.6560   -2.3040    0.0000 C   0  0  0  0  0  4  0  0  0  0  0  0
    3.9917   -3.4531    0.0000 C   0  0  0  0  0  4  0  0  0  0  0  0
    2.6571   -3.4531    0.0000 C   0  0  0  0  0  4  0  0  0  0  0  0
    1.9929   -2.3040    0.0000 C   0  0  0  0  0  4  0  0  0  0  0  0
    0.6643   -2.3040    0.0000 O   0  0  0  0  0  2  0  0  0  0  0  0
    0.0000   -3.4531    0.0000 C   0  0  0  0  0  4  0  0  0  0  0  0
    5.9845   -2.3040    0.0000 C   0  0  0  0  0  4  0  0  0  0  0  0
  1  2  1  0  0  0  0 
  2  3  2  0  0  0  0 
  2  7  1  0  0  0  0 
  3  4  1  0  0  0  0 
  4  5  2  0  0  0  0 
  4 10  1  0  0  0  0 
  5  6  1  0  0  0  0 
  6  7  2  0  0  0  0 
  7  8  1  0  0  0  0 
  8  9  1  0  0  0  0 
M  END
> <CDK Fingerprint>
IAAAAgAQAAEAAAAAAAAAQIAAAAAABAACAAACYQAAAAAAAAAAAAAAACAAACAAAAAAQAAAgAAAAAAADhAAAAAAAIAAAAQAAACAABAAAAAAAAAAgAAAAACAACAAAABAICAgAAAAAkAAAAAAAAAAgAAiAAAAAAAAIhAA

> <ActivityOutcome_CPDBAS_Rat>
active

> <TD50_Rat_mmol>
0.714

$$$$

  CDK     0721101958

  5  4  0  0  0  0  0  0  0  0999 V2000
    0.0000   -0.6638    0.0000 C   0  0  0  0  0  4  0  0  0  0  0  0
    1.1525    0.0000    0.0000 C   0  0  0  0  0  4  0  0  0  0  0  0
    2.3050   -0.6638    0.0000 C   0  0  0  0  0  4  0  0  0  0  0  0
    3.4575    0.0000    0.0000 C   0  0  0  0  0  4  0  0  0  0  0  0
    4.6099   -0.6638    0.0000 O   0  0  0  0  0  2  0  0  0  0  0  0
  1  2  1  0  0  0  0 
  2  3  2  0  0  0  0 
  3  4  1  0  0  0  0 
  4  5  2  0  0  0  0 
M  END
> <CDK Fingerprint>
QAAAAAAAAAAAAAAAAAAAAAAAAAAAAAAAAAAAAAAAAAAAAGAAAAAAAAAAAAAAAAAgAAAAAAAQAAAAAAAAAAAAAAAAAABAAAAAAAAAAAAAAAAAAAAAAAAAAAAAAAAAAAAAAEAAAAAAAAAAAAAAAAAAAAAAAAAwCAAAAAAAAAAAAA==

> <ActivityOutcome_CPDBAS_Rat>
active

> <TD50_Rat_mmol>
0.0599

$$$$

  CDK     0721101958

 16 16  0  0  0  0  0  0  0  0999 V2000
    5.7576   -1.1826    0.0000 C   0  0  0  0  0  4  0  0  0  0  0  0
    4.6268   -0.5187    0.0000 N   0  0  0  0  0  3  0  0  0  0  0  0
    5.7576   -2.5313    0.0000 N   0  0  0  0  0  3  0  0  0  0  0  0
    3.4753   -2.5313    0.0000 N   0  0  0  0  0  3  0  0  0  0  0  0
    3.4753   -1.1826    0.0000 C   0  0  0  0  0  4  0  0  0  0  0  0
    4.6268   -3.1952    0.0000 C   0  0  0  0  0  4  0  0  0  0  0  0
   10.3740   -2.4586    0.0000 N   0  0  0  0  0  3  0  0  0  0  0  0
    6.9298   -0.5083    0.0000 N   0  0  0  0  0  3  0  0  0  0  0  0
    9.2432   -1.8362    0.0000 C   0  0  0  0  0  4  0  0  0  0  0  0
    8.0710   -1.1826    0.0000 C   0  0  0  0  0  4  0  0  0  0  0  0
    2.3030   -0.5083    0.0000 N   0  0  0  0  0  3  0  0  0  0  0  0
    4.6268   -4.5231    0.0000 Cl  0  0  0  0  0  1  0  0  0  0  0  0
    8.7245    0.0000    0.0000 C   0  0  0  0  0  4  0  0  0  0  0  0
    7.4485   -2.3134    0.0000 C   0  0  0  0  0  4  0  0  0  0  0  0
    1.1411   -1.1826    0.0000 C   0  0  0  0  0  4  0  0  0  0  0  0
    0.0000   -0.5083    0.0000 C   0  0  0  0  0  4  0  0  0  0  0  0
  1  2  1  0  0  0  0 
  1  3  2  0  0  0  0 
  1  8  1  0  0  0  0 
  2  5  2  0  0  0  0 
  3  6  1  0  0  0  0 
  4  6  2  0  0  0  0 
  4  5  1  0  0  0  0 
  5 11  1  0  0  0  0 
  6 12  1  0  0  0  0 
  7  9  3  0  0  0  0 
  8 10  1  0  0  0  0 
  9 10  1  0  0  0  0 
 10 13  1  0  0  0  0 
 10 14  1  0  0  0  0 
 11 15  1  0  0  0  0 
 15 16  1  0  0  0  0 
M  END
> <CDK Fingerprint>
BAAAAgGACgQKQAAIAAChAABIAAAAAAAABBAAAAAAACQgAADgAAAAAAAAAIAAAAAEIgAAAQAAAAAAFAAAwIQAASAAAAESAAAIAEAAgIAABIAAAAAAAAEAACAAEAQAAAAAgAAAIAAAEBAAACAAEACIAAAAAAAAADAgAAAQAAACAAI=

> <ActivityOutcome_CPDBAS_Rat>
active

> <TD50_Rat_mmol>
0.0263

$$$$

  CDK     0721101958

  6  5  0  0  0  0  0  0  0  0999 V2000
    3.3281   -2.3040    0.0000 C   0  0  0  0  0  4  0  0  0  0  0  0
    1.3266   -1.1543    0.0000 C   0  0  0  0  0  4  0  0  0  0  0  0
    1.9968   -2.3040    0.0000 N   0  0  0  0  0  3  0  0  0  0  0  0
    4.6546   -2.3040    0.0000 N   0  0  0  0  0  3  0  0  0  0  0  0
    1.9968    0.0000    0.0000 N   0  0  0  0  0  3  0  0  0  0  0  0
    0.0000   -1.1543    0.0000 N   0  0  0  0  0  3  0  0  0  0  0  0
  1  3  1  0  0  0  0 
  1  4  3  0  0  0  0 
  2  3  1  0  0  0  0 
  2  5  2  0  0  0  0 
  2  6  1  0  0  0  0 
M  END
> <CDK Fingerprint>
QAAgEABEAAAAAAAAAAAAAAAAAAAAACAAgAAAAABgAAAAAAAAAAAAAAAAAAAAAAAAAAAAAAAAgAAAAAAAAAAAAAAAAAAAAAAAAAAAAAQAAAAAABAAAAAAAAAAAAAAAAAAAAAAAAAAAAAAAAAAAAAAAAAgAAAAAAACAAA=

> <ActivityOutcome_CPDBAS_Rat>
inactive

$$$$

  CDK     0721101958

 16 18  0  0  0  0  0  0  0  0999 V2000
    6.1161   -2.2634    0.0000 C   0  0  0  0  0  4  0  0  0  0  0  0
    5.6923   -0.9921    0.0000 N   0  0  0  0  0  3  0  0  0  0  0  0
    4.3631   -0.9921    0.0000 C   0  0  0  0  0  4  0  0  0  0  0  0
    3.9490   -2.2634    0.0000 C   0  0  0  0  0  4  0  0  0  0  0  0
    7.4068   -2.5524    0.0000 N   0  0  0  0  0  3  0  0  0  0  0  0
    5.0277   -3.0147    0.0000 O   0  0  0  0  0  2  0  0  0  0  0  0
    3.2940   -0.2312    0.0000 O   0  0  0  0  0  2  0  0  0  0  0  0
    6.6073    0.0000    0.0000 C   0  0  0  0  0  4  0  0  0  0  0  0
    2.6198   -2.2634    0.0000 C   0  0  0  0  0  4  0  0  0  0  0  0
    8.2832   -1.5603    0.0000 C   0  0  0  0  0  4  0  0  0  0  0  0
    2.2442   -1.0306    0.0000 C   0  0  0  0  0  4  0  0  0  0  0  0
    7.8883   -0.3275    0.0000 C   0  0  0  0  0  4  0  0  0  0  0  0
    9.6317   -1.8300    0.0000 N   0  0  0  0  0  3  0  0  0  0  0  0
    1.8108   -3.3326    0.0000 O   0  0  0  0  0  2  0  0  0  0  0  0
    0.9246   -0.6935    0.0000 C   0  0  0  0  0  4  0  0  0  0  0  0
    0.0000   -1.6855    0.0000 O   0  0  0  0  0  2  0  0  0  0  0  0
  1  2  1  0  0  0  0 
  1  5  2  0  0  0  0 
  1  6  1  0  0  0  0 
  3  2  1  1  0  0  0 
  2  8  1  0  0  0  0 
  3  7  1  0  0  0  0 
  3  4  1  0  0  0  0 
  4  6  1  1  0  0  0 
  4  9  1  0  0  0  0 
  5 10  1  0  0  0  0 
  7 11  1  0  0  0  0 
  8 12  2  0  0  0  0 
  9 11  1  0  0  0  0 
  9 14  1  6  0  0  0 
 10 12  1  0  0  0  0 
 10 13  2  0  0  0  0 
 11 15  1  1  0  0  0 
 15 16  1  0  0  0  0 
M  END
> <CDK Fingerprint>
cMSEAc1BQCQigSEKQC0KEhWMFwIQAGHxgDgAAxBAAAADCwBgBIQsUAUggUAQAAE57EqyASOasBoCKgCAxuhCAEABoxcMFIBAgAUQQmkwAImBIyVDJeFDREBAEdQCUVJIFBDgAAADgZSQokAkABCwgggAEBEUAHACAAgASaYCEMo=

> <ActivityOutcome_CPDBAS_Rat>
inactive

$$$$

  CDK     0721101958

 77 84  0  0  0  0  0  0  0  0999 V2000
    7.8373   14.3139    0.0000 C   0  0  0  0  0  4  0  0  0  0  0  0
    7.8373   12.8807    0.0000 O   0  0  0  0  0  2  0  0  0  0  0  0
    6.6399   14.9851    0.0000 C   0  0  0  0  0  4  0  0  0  0  0  0
    6.6399   12.1732    0.0000 C   0  0  0  0  0  4  0  0  0  0  0  0
    5.4425   14.3139    0.0000 C   0  0  0  0  0  4  0  0  0  0  0  0
    5.4425   12.8807    0.0000 C   0  0  0  0  0  4  0  0  0  0  0  0
    9.0709   14.9851    0.0000 O   0  0  0  0  0  2  0  0  0  0  0  0
   10.2682   14.2595    0.0000 C   0  0  0  0  0  4  0  0  0  0  0  0
    9.0709   12.1732    0.0000 C   0  0  0  0  0  4  0  0  0  0  0  0
   10.2682   12.8807    0.0000 C   0  0  0  0  0  4  0  0  0  0  0  0
   11.5019   14.9851    0.0000 C   0  0  0  0  0  4  0  0  0  0  0  0
   12.6993   14.2595    0.0000 C   0  0  0  0  0  4  0  0  0  0  0  0
   11.5019   12.1732    0.0000 O   0  0  0  0  0  2  0  0  0  0  0  0
   12.6993   12.8807    0.0000 C   0  0  0  0  0  4  0  0  0  0  0  0
    6.6399   10.7763    0.0000 C   0  0  0  0  0  4  0  0  0  0  0  0
    9.0709   10.7763    0.0000 O   0  0  0  0  0  2  0  0  0  0  0  0
    7.8373   10.0869    0.0000 O   0  0  0  0  0  2  0  0  0  0  0  0
   12.5360    9.7422    0.0000 C   0  0  0  0  0  4  0  0  0  0  0  0
   11.8103    8.5267    0.0000 O   0  0  0  0  0  2  0  0  0  0  0  0
   13.9511    9.7422    0.0000 C   0  0  0  0  0  4  0  0  0  0  0  0
   13.9511   12.1732    0.0000 O   0  0  0  0  0  2  0  0  0  0  0  0
   14.6223   10.9758    0.0000 C   0  0  0  0  0  4  0  0  0  0  0  0
    4.1907    9.7422    0.0000 O   0  0  0  0  0  2  0  0  0  0  0  0
    4.1907   12.1732    0.0000 O   0  0  0  0  0  2  0  0  0  0  0  0
    3.4832   10.9758    0.0000 C   0  0  0  0  0  4  0  0  0  0  0  0
    3.4832    8.5267    0.0000 C   0  0  0  0  0  4  0  0  0  0  0  0
    2.0863    8.5267    0.0000 C   0  0  0  0  0  4  0  0  0  0  0  0
    2.0863   10.9758    0.0000 C   0  0  0  0  0  4  0  0  0  0  0  0
    1.3969    9.7422    0.0000 C   0  0  0  0  0  4  0  0  0  0  0  0
    5.6058    7.3111    0.0000 O   0  0  0  0  0  2  0  0  0  0  0  0
    4.1907    7.3111    0.0000 C   0  0  0  0  0  4  0  0  0  0  0  0
   12.5360    7.3111    0.0000 O   0  0  0  0  0  2  0  0  0  0  0  0
    6.2952    6.1139    0.0000 O   0  0  0  0  0  2  0  0  0  0  0  0
   14.6223    8.5267    0.0000 O   0  0  0  0  0  2  0  0  0  0  0  0
   13.9511    7.3111    0.0000 C   0  0  0  0  0  4  0  0  0  0  0  0
   16.0192    8.5267    0.0000 C   0  0  0  0  0  4  0  0  0  0  0  0
   16.0192   10.9758    0.0000 C   0  0  0  0  0  4  0  0  0  0  0  0
   16.7450    9.7422    0.0000 C   0  0  0  0  0  4  0  0  0  0  0  0
   14.6586    6.1139    0.0000 C   0  0  0  0  0  4  0  0  0  0  0  0
   16.7450    7.3111    0.0000 O   0  0  0  0  0  2  0  0  0  0  0  0
   16.0192    6.1139    0.0000 C   0  0  0  0  0  4  0  0  0  0  0  0
   13.9511    4.8802    0.0000 O   0  0  0  0  0  2  0  0  0  0  0  0
    5.6058    4.8802    0.0000 C   0  0  0  0  0  4  0  0  0  0  0  0
    4.1907    4.8802    0.0000 C   0  0  0  0  0  4  0  0  0  0  0  0
    3.4832    6.1139    0.0000 O   0  0  0  0  0  2  0  0  0  0  0  0
    2.0863    6.1139    0.0000 C   0  0  0  0  0  4  0  0  0  0  0  0
    1.3969    7.3111    0.0000 O   0  0  0  0  0  2  0  0  0  0  0  0
    3.4832    3.6647    0.0000 C   0  0  0  0  0  4  0  0  0  0  0  0
    1.3969    4.8802    0.0000 C   0  0  0  0  0  4  0  0  0  0  0  0
    2.0863    3.6647    0.0000 C   0  0  0  0  0  4  0  0  0  0  0  0
   14.6223    3.6828    0.0000 C   0  0  0  0  0  4  0  0  0  0  0  0
    4.1907    2.4673    0.0000 O   0  0  0  0  0  2  0  0  0  0  0  0
   16.7450    4.8802    0.0000 C   0  0  0  0  0  4  0  0  0  0  0  0
   16.0192    3.6647    0.0000 C   0  0  0  0  0  4  0  0  0  0  0  0
    6.6399   16.3821    0.0000 O   0  0  0  0  0  2  0  0  0  0  0  0
   11.5019   16.3821    0.0000 O   0  0  0  0  0  2  0  0  0  0  0  0
   13.9511   14.9851    0.0000 O   0  0  0  0  0  2  0  0  0  0  0  0
    4.1907   14.9851    0.0000 O   0  0  0  0  0  2  0  0  0  0  0  0
   16.7450   12.1732    0.0000 O   0  0  0  0  0  2  0  0  0  0  0  0
   18.1418    9.7422    0.0000 O   0  0  0  0  0  2  0  0  0  0  0  0
   18.1418    4.8802    0.0000 O   0  0  0  0  0  2  0  0  0  0  0  0
   16.7450    2.4310    0.0000 O   0  0  0  0  0  2  0  0  0  0  0  0
    1.3969    2.4310    0.0000 O   0  0  0  0  0  2  0  0  0  0  0  0
    0.0000    4.8802    0.0000 O   0  0  0  0  0  2  0  0  0  0  0  0
    0.0000    9.7422    0.0000 O   0  0  0  0  0  2  0  0  0  0  0  0
    1.3969   12.1732    0.0000 O   0  0  0  0  0  2  0  0  0  0  0  0
   13.9511    2.4310    0.0000 O   0  0  0  0  0  2  0  0  0  0  0  0
   12.0462    0.0000    0.0000 O   0  0  0  0  0  2  0  0  0  0  0  0
   10.6492    0.0000    0.0000 C   0  0  0  0  0  4  0  0  0  0  0  0
    9.9599    1.2337    0.0000 C   0  0  0  0  0  4  0  0  0  0  0  0
   10.6492    2.4129    0.0000 C   0  0  0  0  0  4  0  0  0  0  0  0
    8.5629    1.2337    0.0000 O   0  0  0  0  0  2  0  0  0  0  0  0
    7.8736    2.4129    0.0000 C   0  0  0  0  0  4  0  0  0  0  0  0
    9.9599    3.6647    0.0000 C   0  0  0  0  0  4  0  0  0  0  0  0
    8.5629    3.6647    0.0000 C   0  0  0  0  0  4  0  0  0  0  0  0
   10.6492    4.8620    0.0000 O   0  0  0  0  0  2  0  0  0  0  0  0
    7.8373    4.8620    0.0000 O   0  0  0  0  0  2  0  0  0  0  0  0
  1  3  1  0  0  0  0 
  1  7  1  1  0  0  0 
  1  2  1  0  0  0  0 
  2  4  1  0  0  0  0 
  3  5  1  0  0  0  0 
  3 55  1  1  0  0  0 
  4 15  1  6  0  0  0 
  4  6  1  0  0  0  0 
  5  6  1  0  0  0  0 
  5 58  1  6  0  0  0 
  6 24  1  1  0  0  0 
  8  7  1  1  0  0  0 
  8 11  1  0  0  0  0 
  8 10  1  0  0  0  0 
 10  9  1  6  0  0  0 
  9 16  1  0  0  0  0 
 10 13  1  0  0  0  0 
 11 12  1  0  0  0  0 
 11 56  1  6  0  0  0 
 12 14  1  0  0  0  0 
 12 57  1  1  0  0  0 
 13 14  1  0  0  0  0 
 14 21  1  1  0  0  0 
 15 17  1  0  0  0  0 
 20 18  1  6  0  0  0 
 18 19  1  0  0  0  0 
 20 34  1  0  0  0  0 
 20 22  1  0  0  0  0 
 22 21  1  1  0  0  0 
 22 37  1  0  0  0  0 
 23 25  1  0  0  0  0 
 23 26  1  0  0  0  0 
 25 24  1  1  0  0  0 
 25 28  1  0  0  0  0 
 26 31  1  6  0  0  0 
 26 27  1  0  0  0  0 
 27 29  1  0  0  0  0 
 27 47  1  1  0  0  0 
 28 29  1  0  0  0  0 
 28 66  1  1  0  0  0 
 29 65  1  6  0  0  0 
 30 31  1  0  0  0  0 
 32 35  1  0  0  0  0 
 33 43  1  0  0  0  0 
 34 36  1  0  0  0  0 
 39 35  1  6  0  0  0 
 36 38  1  0  0  0  0 
 36 40  1  1  0  0  0 
 37 38  1  0  0  0  0 
 37 59  1  6  0  0  0 
 38 60  1  1  0  0  0 
 39 41  1  0  0  0  0 
 39 42  1  0  0  0  0 
 41 40  1  1  0  0  0 
 41 53  1  0  0  0  0 
 42 51  1  0  0  0  0 
 44 43  1  6  0  0  0 
 44 45  1  0  0  0  0 
 44 48  1  0  0  0  0 
 45 46  1  0  0  0  0 
 46 47  1  1  0  0  0 
 46 49  1  0  0  0  0 
 48 50  1  0  0  0  0 
 48 52  1  1  0  0  0 
 49 50  1  0  0  0  0 
 49 64  1  1  0  0  0 
 50 63  1  6  0  0  0 
 51 54  1  0  0  0  0 
 51 67  1  1  0  0  0 
 73 52  1  6  0  0  0 
 53 54  1  0  0  0  0 
 53 61  1  6  0  0  0 
 54 62  1  1  0  0  0 
 71 67  1  6  0  0  0 
 68 69  1  0  0  0  0 
 70 69  1  1  0  0  0 
 70 71  1  0  0  0  0 
 70 72  1  0  0  0  0 
 71 74  1  0  0  0  0 
 72 73  1  0  0  0  0 
 73 75  1  0  0  0  0 
 74 75  1  0  0  0  0 
 74 76  1  1  0  0  0 
 75 77  1  6  0  0  0 
M  END
> <CDK Fingerprint>
BKAAAAAAAAAQAADDBBQAABA0AAgIAAEQwAAABQAAAAAQAQBgRIAAAAAgBAUBIAAYJAIiAASACAJhAAAgQGAAgACAAEAAAgHAEAQAAFQAEAAAAAAIQCAEQARBEQAAAEIAAAAIQAAABAAAgAAAABAAACAAAAEACDAgAAAAAAABAAA=

> <ActivityOutcome_CPDBAS_Rat>
inactive

$$$$

  CDK     0721101958

  7  7  0  0  0  0  0  0  0  0999 V2000
    0.0000   -1.1496    0.0000 O   0  0  0  0  0  2  0  0  0  0  0  0
    1.3292   -1.1496    0.0000 C   0  0  0  0  0  4  0  0  0  0  0  0
    1.9958    0.0000    0.0000 C   0  0  0  0  0  4  0  0  0  0  0  0
    3.3250    0.0000    0.0000 C   0  0  0  0  0  4  0  0  0  0  0  0
    3.9916   -1.1496    0.0000 C   0  0  0  0  0  4  0  0  0  0  0  0
    3.3250   -2.3032    0.0000 C   0  0  0  0  0  4  0  0  0  0  0  0
    1.9958   -2.3032    0.0000 C   0  0  0  0  0  4  0  0  0  0  0  0
  1  2  2  0  0  0  0 
  2  3  1  0  0  0  0 
  2  7  1  0  0  0  0 
  3  4  1  0  0  0  0 
  4  5  1  0  0  0  0 
  5  6  1  0  0  0  0 
  6  7  1  0  0  0  0 
M  END
> <CDK Fingerprint>
QAAAAAAAAAABAQBgAAAAAAAAAAAAAAAAIAAAAAAAAAAAAAAgQAAAAAAAAAAAAAAAAAAAAAAAAAAAAAAAAAAAAAAAAAAAAAAAAABAAAAAAAAAAAAAABAAAQAAAAAAEAAAAAAAAAQAAAA=

> <ActivityOutcome_CPDBAS_Rat>
inactive

$$$$

  CDK     0721101958

  7  7  0  0  0  0  0  0  0  0999 V2000
    0.0000   -2.2427    0.0000 C   0  0  0  0  0  4  0  0  0  0  0  0
    1.2194   -1.7157    0.0000 C   0  0  0  0  0  4  0  0  0  0  0  0
    0.1462   -3.5737    0.0000 C   0  0  0  0  0  4  0  0  0  0  0  0
    2.1003   -2.6927    0.0000 C   0  0  0  0  0  4  0  0  0  0  0  0
    1.4425   -3.8468    0.0000 C   0  0  0  0  0  4  0  0  0  0  0  0
    1.4887   -0.4001    0.0000 N   0  0  0  0  0  3  0  0  0  0  0  0
    2.7581    0.0000    0.0000 O   0  0  0  0  0  2  0  0  0  0  0  0
  1  2  1  0  0  0  0 
  1  3  1  0  0  0  0 
  2  4  1  0  0  0  0 
  2  6  2  0  0  0  0 
  3  5  1  0  0  0  0 
  4  5  1  0  0  0  0 
  6  7  1  0  0  0  0 
M  END
> <CDK Fingerprint>
CEAAAAAAGAAAAAIAAAAAAAgAAAAAAAAAAAAAAAEAYAAAAAAAAAAAAAAAACAgAAAAAAAAAAAAAEAAAAAAAAAAAAABAAAAAAAAAAAAAAABAAAAAAAAAAAAAAAAAAAAAAAAAAAAAAAAAAAQAYAAAAAAAAAAAAAAAAAAAAAA

> <ActivityOutcome_CPDBAS_Rat>
active

> <TD50_Rat_mmol>
0.413

$$$$

  CDK     0721101958

 25 27  0  0  0  0  0  0  0  0999 V2000
    5.6808   -3.9930    0.0000 C   0  0  0  0  0  4  0  0  0  0  0  0
    5.6808   -5.3206    0.0000 O   0  0  0  0  0  2  0  0  0  0  0  0
    4.5281   -3.3344    0.0000 C   0  0  0  0  0  4  0  0  0  0  0  0
    3.3858   -3.9930    0.0000 C   0  0  0  0  0  4  0  0  0  0  0  0
    4.5384   -2.0068    0.0000 C   0  0  0  0  0  4  0  0  0  0  0  0
    2.2332   -3.3344    0.0000 C   0  0  0  0  0  4  0  0  0  0  0  0
    3.3755   -1.3379    0.0000 C   0  0  0  0  0  4  0  0  0  0  0  0
    2.2332   -2.0068    0.0000 C   0  0  0  0  0  4  0  0  0  0  0  0
    6.8334   -3.3241    0.0000 N   0  0  0  0  0  3  0  0  0  0  0  0
    1.0806   -4.0033    0.0000 O   0  0  0  0  0  2  0  0  0  0  0  0
    1.0806   -5.3206    0.0000 C   0  0  0  0  0  4  0  0  0  0  0  0
    0.0000   -6.1027    0.0000 C   0  0  0  0  0  4  0  0  0  0  0  0
    0.4116   -7.3685    0.0000 C   0  0  0  0  0  4  0  0  0  0  0  0
    1.7495   -7.3685    0.0000 C   0  0  0  0  0  4  0  0  0  0  0  0
    2.1509   -6.1027    0.0000 C   0  0  0  0  0  4  0  0  0  0  0  0
   10.2912   -5.3206    0.0000 N   0  0  0  0  0  3  0  0  0  0  0  0
    9.1386   -5.9895    0.0000 C   0  0  0  0  0  4  0  0  0  0  0  0
   10.2912   -3.9930    0.0000 C   0  0  0  0  0  4  0  0  0  0  0  0
    9.1386   -3.3241    0.0000 C   0  0  0  0  0  4  0  0  0  0  0  0
    7.9860   -5.3206    0.0000 C   0  0  0  0  0  4  0  0  0  0  0  0
    7.9860   -3.9930    0.0000 C   0  0  0  0  0  4  0  0  0  0  0  0
    9.1386   -1.9965    0.0000 Cl  0  0  0  0  0  1  0  0  0  0  0  0
    6.8334   -5.9895    0.0000 Cl  0  0  0  0  0  1  0  0  0  0  0  0
    1.0806   -1.3379    0.0000 O   0  0  0  0  0  2  0  0  0  0  0  0
    1.0806    0.0000    0.0000 C   0  0  0  0  0  4  0  0  0  0  0  0
  1  2  2  0  0  0  0 
  1  3  1  0  0  0  0 
  1  9  1  0  0  0  0 
  3  4  2  0  0  0  0 
  3  5  1  0  0  0  0 
  4  6  1  0  0  0  0 
  5  7  2  0  0  0  0 
  6  8  2  0  0  0  0 
  6 10  1  0  0  0  0 
  7  8  1  0  0  0  0 
  8 24  1  0  0  0  0 
  9 21  1  0  0  0  0 
 10 11  1  0  0  0  0 
 11 12  1  0  0  0  0 
 11 15  1  0  0  0  0 
 12 13  1  0  0  0  0 
 13 14  1  0  0  0  0 
 14 15  1  0  0  0  0 
 16 17  2  0  0  0  0 
 16 18  1  0  0  0  0 
 17 20  1  0  0  0  0 
 18 19  2  0  0  0  0 
 19 21  1  0  0  0  0 
 19 22  1  0  0  0  0 
 20 21  2  0  0  0  0 
 20 23  1  0  0  0  0 
 24 25  1  0  0  0  0 
M  END
> <CDK Fingerprint>
YAgAQgCQCiBiCMBOIBAoBAEgAIAIgAIIgABGAQAFzCTACQPrAAAAhICABCgAAAAYIAYgJACAAgBBKARIwAAACcEGEAAAAAQCEQRiFGAAAJAFkwAABAAgQBGDMAAAQICAKABQEsAgITABECAOYBIAQFAEQgCIUjjiAIEAAANiAAA=

> <ActivityOutcome_CPDBAS_Rat>
active

> <TD50_Rat_mmol>
0.00404

$$$$

  CDK     0721101958

 14 14  0  0  0  0  0  0  0  0999 V2000
    6.6332   -4.5371    0.0000 Cl  0  0  0  0  0  1  0  0  0  0  0  0
    5.7776   -3.5156    0.0000 C   0  0  0  0  0  4  0  0  0  0  0  0
    4.4708   -3.7478    0.0000 C   0  0  0  0  0  4  0  0  0  0  0  0
    3.6151   -2.7329    0.0000 N   0  0  0  0  0  3  0  0  0  0  0  0
    4.0662   -1.4792    0.0000 C   0  0  0  0  0  4  0  0  0  0  0  0
    5.3796   -1.2470    0.0000 C   0  0  0  0  0  4  0  0  0  0  0  0
    5.8306    0.0000    0.0000 Cl  0  0  0  0  0  1  0  0  0  0  0  0
    2.3017   -2.9584    0.0000 P   0  0  0  0  0  5  0  0  0  0  0  0
    2.7594   -4.2121    0.0000 O   0  0  0  0  0  2  0  0  0  0  0  0
    1.1542   -3.6284    0.0000 N   0  0  0  0  0  3  0  0  0  0  0  0
    0.0000   -2.9584    0.0000 C   0  0  0  0  0  4  0  0  0  0  0  0
    0.0000   -1.6318    0.0000 C   0  0  0  0  0  4  0  0  0  0  0  0
    1.1542   -0.9685    0.0000 C   0  0  0  0  0  4  0  0  0  0  0  0
    2.3017   -1.6318    0.0000 O   0  0  0  0  0  2  0  0  0  0  0  0
  1  2  1  0  0  0  0 
  2  3  1  0  0  0  0 
  3  4  1  0  0  0  0 
  4  5  1  0  0  0  0 
  4  8  1  0  0  0  0 
  5  6  1  0  0  0  0 
  6  7  1  0  0  0  0 
  8  9  2  0  0  0  0 
  8 10  1  0  0  0  0 
  8 14  1  0  0  0  0 
 10 11  1  0  0  0  0 
 11 12  1  0  0  0  0 
 12 13  1  0  0  0  0 
 13 14  1  0  0  0  0 
M  END
> <CDK Fingerprint>
AhAAAAAAAAIBwAIAEQAAAAACAAACAAAAABAABAAACAAJAeAABAAAAAAAAkAEABAgAggBAgAAgAAAAEjAAKABAAINGIAAgAAQAAAAAIQAgAAAAAgAAAAAAAQQAAAAAABEAOAAEAAMDAAAAAAwBgAAAAAAAAQgQAIAAEgAEAOAAg==

> <ActivityOutcome_CPDBAS_Rat>
active

> <TD50_Rat_mmol>
0.00846

$$$$

  CDK     0721101958

 85 85  0  0  0  0  0  0  0  0999 V2000
   12.5911   -5.9979    0.0000 C   0  0  0  0  0  4  0  0  0  0  0  0
   11.4885   -6.6594    0.0000 N   0  0  0  0  0  3  0  0  0  0  0  0
   13.8039   -6.6594    0.0000 C   0  0  0  0  0  4  0  0  0  0  0  0
   12.6131   -4.6748    0.0000 C   0  0  0  0  0  4  0  0  0  0  0  0
   10.3419   -5.9979    0.0000 C   0  0  0  0  0  4  0  0  0  0  0  0
   11.4885   -8.0045    0.0000 C   0  0  0  0  0  4  0  0  0  0  0  0
   14.9285   -5.9979    0.0000 N   0  0  0  0  0  3  0  0  0  0  0  0
   13.7818   -8.0045    0.0000 O   0  0  0  0  0  2  0  0  0  0  0  0
   13.7818   -4.0133    0.0000 C   0  0  0  0  0  4  0  0  0  0  0  0
   11.4885   -4.0133    0.0000 O   0  0  0  0  0  2  0  0  0  0  0  0
    9.1952   -6.6594    0.0000 C   0  0  0  0  0  4  0  0  0  0  0  0
   10.3419   -4.6748    0.0000 O   0  0  0  0  0  2  0  0  0  0  0  0
   16.0751   -6.6594    0.0000 C   0  0  0  0  0  4  0  0  0  0  0  0
   13.7818   -2.6902    0.0000 C   0  0  0  0  0  4  0  0  0  0  0  0
   14.9285   -4.6748    0.0000 C   0  0  0  0  0  4  0  0  0  0  0  0
    8.0486   -5.9979    0.0000 N   0  0  0  0  0  3  0  0  0  0  0  0
    9.1952   -8.0045    0.0000 C   0  0  0  0  0  4  0  0  0  0  0  0
   17.2438   -5.9979    0.0000 C   0  0  0  0  0  4  0  0  0  0  0  0
   16.0751   -8.0045    0.0000 C   0  0  0  0  0  4  0  0  0  0  0  0
   12.6352   -2.0066    0.0000 C   0  0  0  0  0  4  0  0  0  0  0  0
    6.9019   -6.6594    0.0000 C   0  0  0  0  0  4  0  0  0  0  0  0
    8.0486   -4.6748    0.0000 C   0  0  0  0  0  4  0  0  0  0  0  0
    8.0486   -8.6881    0.0000 C   0  0  0  0  0  4  0  0  0  0  0  0
   10.3198   -8.6660    0.0000 C   0  0  0  0  0  4  0  0  0  0  0  0
   18.3684   -6.6594    0.0000 N   0  0  0  0  0  3  0  0  0  0  0  0
   17.2438   -4.6748    0.0000 O   0  0  0  0  0  2  0  0  0  0  0  0
   15.5680   -8.7101    0.0000 C   0  0  0  0  0  4  0  0  0  0  0  0
   12.6793   -0.6836    0.0000 C   0  0  0  0  0  4  0  0  0  0  0  0
    5.7553   -5.9979    0.0000 C   0  0  0  0  0  4  0  0  0  0  0  0
    6.9019   -8.0045    0.0000 O   0  0  0  0  0  2  0  0  0  0  0  0
   18.3684   -8.3132    0.0000 C   0  0  0  0  0  4  0  0  0  0  0  0
   19.5151   -5.9979    0.0000 C   0  0  0  0  0  4  0  0  0  0  0  0
   11.5767    0.0000    0.0000 C   0  0  0  0  0  4  0  0  0  0  0  0
    4.5866   -6.6594    0.0000 N   0  0  0  0  0  3  0  0  0  0  0  0
    5.7332   -4.6748    0.0000 C   0  0  0  0  0  4  0  0  0  0  0  0
   19.4710   -9.5701    0.0000 C   0  0  0  0  0  4  0  0  0  0  0  0
    4.5866   -8.0045    0.0000 C   0  0  0  0  0  4  0  0  0  0  0  0
    3.4399   -5.9979    0.0000 C   0  0  0  0  0  4  0  0  0  0  0  0
    4.5866   -4.0574    0.0000 C   0  0  0  0  0  4  0  0  0  0  0  0
   18.6771  -11.0696    0.0000 N   0  0  0  0  0  3  0  0  0  0  0  0
   20.5735   -9.5260    0.0000 O   0  0  0  0  0  2  0  0  0  0  0  0
    3.4179   -8.6440    0.0000 C   0  0  0  0  0  4  0  0  0  0  0  0
    5.7553   -8.6881    0.0000 O   0  0  0  0  0  2  0  0  0  0  0  0
    3.4399   -4.7410    0.0000 C   0  0  0  0  0  4  0  0  0  0  0  0
    4.5425   -2.7784    0.0000 C   0  0  0  0  0  4  0  0  0  0  0  0
   18.6771  -12.3706    0.0000 C   0  0  0  0  0  4  0  0  0  0  0  0
   17.6187  -10.3198    0.0000 C   0  0  0  0  0  4  0  0  0  0  0  0
    3.4399   -9.9891    0.0000 N   0  0  0  0  0  3  0  0  0  0  0  0
    2.2933   -8.0045    0.0000 C   0  0  0  0  0  4  0  0  0  0  0  0
   17.5305  -13.0321    0.0000 C   0  0  0  0  0  4  0  0  0  0  0  0
   19.8017  -13.0542    0.0000 C   0  0  0  0  0  4  0  0  0  0  0  0
    4.5866  -10.6506    0.0000 C   0  0  0  0  0  4  0  0  0  0  0  0
    2.3153  -10.6947    0.0000 C   0  0  0  0  0  4  0  0  0  0  0  0
    1.1466   -8.7101    0.0000 C   0  0  0  0  0  4  0  0  0  0  0  0
   16.4059  -12.3926    0.0000 N   0  0  0  0  0  3  0  0  0  0  0  0
   17.5084  -14.3111    0.0000 O   0  0  0  0  0  2  0  0  0  0  0  0
   20.9484  -12.4147    0.0000 C   0  0  0  0  0  4  0  0  0  0  0  0
    4.5866  -11.9737    0.0000 C   0  0  0  0  0  4  0  0  0  0  0  0
    5.7553   -9.9891    0.0000 O   0  0  0  0  0  2  0  0  0  0  0  0
    0.0000   -8.0706    0.0000 C   0  0  0  0  0  4  0  0  0  0  0  0
    1.1687  -10.0111    0.0000 C   0  0  0  0  0  4  0  0  0  0  0  0
   15.2813  -13.0762    0.0000 C   0  0  0  0  0  4  0  0  0  0  0  0
   22.0509  -13.0762    0.0000 C   0  0  0  0  0  4  0  0  0  0  0  0
   20.9484  -11.1137    0.0000 C   0  0  0  0  0  4  0  0  0  0  0  0
    6.0640  -13.0321    0.0000 N   0  0  0  0  0  3  0  0  0  0  0  0
    3.4840  -12.5911    0.0000 C   0  0  0  0  0  4  0  0  0  0  0  0
   14.1346  -12.4367    0.0000 C   0  0  0  0  0  4  0  0  0  0  0  0
   15.3254  -14.3772    0.0000 C   0  0  0  0  0  4  0  0  0  0  0  0
    7.2107  -12.3926    0.0000 C   0  0  0  0  0  4  0  0  0  0  0  0
   12.9880  -13.0321    0.0000 N   0  0  0  0  0  3  0  0  0  0  0  0
   14.1346  -11.1137    0.0000 O   0  0  0  0  0  2  0  0  0  0  0  0
   16.4500  -15.0167    0.0000 C   0  0  0  0  0  4  0  0  0  0  0  0
   14.2449  -15.0608    0.0000 C   0  0  0  0  0  4  0  0  0  0  0  0
    8.3794  -12.9880    0.0000 C   0  0  0  0  0  4  0  0  0  0  0  0
    7.2107  -11.0475    0.0000 O   0  0  0  0  0  2  0  0  0  0  0  0
   11.8414  -12.3926    0.0000 C   0  0  0  0  0  4  0  0  0  0  0  0
   12.9880  -14.3772    0.0000 C   0  0  0  0  0  4  0  0  0  0  0  0
    9.5701  -12.3926    0.0000 N   0  0  0  0  0  3  0  0  0  0  0  0
    8.3794  -14.3772    0.0000 C   0  0  0  0  0  4  0  0  0  0  0  0
   10.6727  -13.0321    0.0000 C   0  0  0  0  0  4  0  0  0  0  0  0
   11.8634  -11.0916    0.0000 C   0  0  0  0  0  4  0  0  0  0  0  0
   10.6727  -14.3772    0.0000 O   0  0  0  0  0  2  0  0  0  0  0  0
   13.0101  -10.4301    0.0000 C   0  0  0  0  0  4  0  0  0  0  0  0
   13.0762   -9.0850    0.0000 C   0  0  0  0  0  4  0  0  0  0  0  0
   14.2449  -10.2757    0.0000 C   0  0  0  0  0  4  0  0  0  0  0  0
  1  2  1  0  0  0  0 
  1  3  1  0  0  0  0 
  1  4  1  0  0  0  0 
  2  5  1  0  0  0  0 
  2  6  1  0  0  0  0 
  3  7  1  0  0  0  0 
  3  8  2  0  0  0  0 
  4  9  1  0  0  0  0 
  4 10  1  6  0  0  0 
  5 11  1  0  0  0  0 
  5 12  2  0  0  0  0 
  7 13  1  0  0  0  0 
  9 14  1  0  0  0  0 
  9 15  1  1  0  0  0 
 11 16  1  0  0  0  0 
 11 17  1  6  0  0  0 
 13 18  1  0  0  0  0 
 13 19  1  6  0  0  0 
 14 20  1  0  0  0  0 
 16 21  1  0  0  0  0 
 16 22  1  0  0  0  0 
 17 23  1  0  0  0  0 
 17 24  1  0  0  0  0 
 18 25  1  0  0  0  0 
 18 26  2  0  0  0  0 
 19 27  1  0  0  0  0 
 20 28  2  0  0  0  0 
 21 29  1  0  0  0  0 
 21 30  2  0  0  0  0 
 25 31  1  0  0  0  0 
 25 32  1  0  0  0  0 
 28 33  1  0  0  0  0 
 29 34  1  0  0  0  0 
 29 35  1  1  0  0  0 
 31 36  1  0  0  0  0 
 34 37  1  0  0  0  0 
 34 38  1  0  0  0  0 
 35 39  1  0  0  0  0 
 36 40  1  0  0  0  0 
 36 41  2  0  0  0  0 
 37 42  1  0  0  0  0 
 37 43  2  0  0  0  0 
 39 44  1  0  0  0  0 
 39 45  1  0  0  0  0 
 40 46  1  0  0  0  0 
 40 47  1  0  0  0  0 
 42 48  1  0  0  0  0 
 42 49  1  1  0  0  0 
 46 50  1  0  0  0  0 
 46 51  1  1  0  0  0 
 48 52  1  0  0  0  0 
 48 53  1  0  0  0  0 
 49 54  1  0  0  0  0 
 50 55  1  0  0  0  0 
 50 56  2  0  0  0  0 
 51 57  1  0  0  0  0 
 52 58  1  0  0  0  0 
 52 59  2  0  0  0  0 
 54 60  1  0  0  0  0 
 54 61  1  0  0  0  0 
 55 62  1  0  0  0  0 
 57 63  1  0  0  0  0 
 57 64  1  0  0  0  0 
 58 65  1  0  0  0  0 
 58 66  1  6  0  0  0 
 62 67  1  0  0  0  0 
 62 68  1  1  0  0  0 
 65 69  1  0  0  0  0 
 67 70  1  0  0  0  0 
 67 71  2  0  0  0  0 
 68 72  1  0  0  0  0 
 68 73  1  0  0  0  0 
 69 74  1  0  0  0  0 
 69 75  2  0  0  0  0 
 70 76  1  0  0  0  0 
 70 77  1  0  0  0  0 
 74 78  1  0  0  0  0 
 74 79  1  1  0  0  0 
 76 80  1  0  0  0  0 
 76 81  1  6  0  0  0 
 78 80  1  0  0  0  0 
 80 82  2  0  0  0  0 
 81 83  1  0  0  0  0 
 83 84  1  0  0  0  0 
 83 85  1  0  0  0  0 
M  END
> <CDK Fingerprint>
QBIEAAEAAAIgABIAURAAAAELAgAEEgDAAAAAEAAAAAEBCGAARCQAAABQQAgAARggABAQAmAYAAAARCLAAAQAkAAAQAQAANBAIAAAAAAAgAAAQEIgAEAAAAAQQABIABQAAEBAAQEAABFMaCAAEAQBhAACwADQWQAIAGBABAIKIA==

> <ActivityOutcome_CPDBAS_Rat>
inactive

$$$$

  CDK     0721101958

 13 13  0  0  0  0  0  0  0  0999 V2000
    0.0000   -3.9000    0.0000 C   0  0  0  0  0  4  0  0  0  0  0  0
    0.9384   -2.9616    0.0000 N   0  0  0  0  0  3  0  0  0  0  0  0
    0.5990   -1.6771    0.0000 C   0  0  0  0  0  4  0  0  0  0  0  0
    2.2229   -3.3077    0.0000 N   0  0  0  0  0  3  0  0  0  0  0  0
    3.1613   -2.3626    0.0000 N   0  0  0  0  0  3  0  0  0  0  0  0
    4.4258   -2.7753    0.0000 C   0  0  0  0  0  4  0  0  0  0  0  0
    5.5040   -1.9966    0.0000 C   0  0  0  0  0  4  0  0  0  0  0  0
    6.5821   -2.7753    0.0000 N   0  0  0  0  0  3  0  0  0  0  0  0
    6.1695   -4.0398    0.0000 C   0  0  0  0  0  4  0  0  0  0  0  0
    4.8384   -4.0398    0.0000 N   0  0  0  0  0  3  0  0  0  0  0  0
    5.5040   -0.6655    0.0000 C   0  0  0  0  0  4  0  0  0  0  0  0
    4.3526    0.0000    0.0000 N   0  0  0  0  0  3  0  0  0  0  0  0
    6.6553    0.0000    0.0000 O   0  0  0  0  0  2  0  0  0  0  0  0
  1  2  1  0  0  0  0 
  2  3  1  0  0  0  0 
  2  4  1  0  0  0  0 
  4  5  2  0  0  0  0 
  5  6  1  0  0  0  0 
  6  7  2  0  0  0  0 
  6 10  1  0  0  0  0 
  7  8  1  0  0  0  0 
  7 11  1  0  0  0  0 
  8  9  1  0  0  0  0 
  9 10  2  0  0  0  0 
 11 12  1  0  0  0  0 
 11 13  2  0  0  0  0 
M  END
> <CDK Fingerprint>
IAACAINCBQIggCIQAEAAgABgAAAAAAAAAAAAAEUCBEAIAGAAQAQAEAEBgAAAIAFgAAyCBAEAIEAACMCAwAAQEQAABAQAQCCCQAQAAgAABAAAAAAAQRAEIAAAAgAAgAhAAEAwAABAHAAAAABAAAEAAAQAIARQBEAAAAEAQAsAAg==

> <ActivityOutcome_CPDBAS_Rat>
active

> <TD50_Rat_mmol>
0.0039

$$$$

  CDK     0721101958

 11 10  0  0  0  0  0  0  0  0999 V2000
    3.4621   -3.3249    0.0000 O   0  0  0  0  0  2  0  0  0  0  0  0
    3.4621   -1.9933    0.0000 C   0  0  0  0  0  4  0  0  0  0  0  0
    4.6081   -1.3316    0.0000 C   0  0  0  0  0  4  0  0  0  0  0  0
    5.7622   -1.9933    0.0000 C   0  0  0  0  0  4  0  0  0  0  0  0
    6.9162   -1.3316    0.0000 C   0  0  0  0  0  4  0  0  0  0  0  0
    6.9162    0.0000    0.0000 O   0  0  0  0  0  2  0  0  0  0  0  0
    8.0702   -1.9933    0.0000 O   0  0  0  0  0  2  0  0  0  0  0  0
    2.3081   -1.3316    0.0000 N   0  0  0  0  0  3  0  0  0  0  0  0
    1.1540   -1.9933    0.0000 N   0  0  0  0  0  3  0  0  0  0  0  0
    1.1540   -3.3249    0.0000 C   0  0  0  0  0  4  0  0  0  0  0  0
    0.0000   -1.3316    0.0000 C   0  0  0  0  0  4  0  0  0  0  0  0
  1  2  2  0  0  0  0 
  2  3  1  0  0  0  0 
  2  8  1  0  0  0  0 
  3  4  1  0  0  0  0 
  4  5  1  0  0  0  0 
  5  6  2  0  0  0  0 
  5  7  1  0  0  0  0 
  8  9  1  0  0  0  0 
  9 10  1  0  0  0  0 
  9 11  1  0  0  0  0 
M  END
> <CDK Fingerprint>
AIAAAAAAAAACAAACAAOAAAAAAAAAAAAAAAAAAAAAAEAEAABgAAACAAAABAAAAAAQIAACAAAAAAAAAEAgwAAAAgAAAAAAAABACAAAAAAAAABAAAAAAAAAAAAQEAAAAAAAAABAIAAAAAgAAAAAABAAAQAAAACAUBAAAAAAAAADAAA=

> <ActivityOutcome_CPDBAS_Rat>
active

> <TD50_Rat_mmol>
15.6

$$$$

  CDK     0721101958

 17 18  0  0  0  0  0  0  0  0999 V2000
    5.3218   -2.6609    0.0000 O   0  0  0  0  0  2  0  0  0  0  0  0
    5.3218   -1.3304    0.0000 S   0  0  0  0  0  6  0  0  0  0  0  0
    5.3218    0.0000    0.0000 O   0  0  0  0  0  2  0  0  0  0  0  0
    3.9913   -1.3304    0.0000 C   0  0  0  0  0  4  0  0  0  0  0  0
    3.3208   -0.1809    0.0000 C   0  0  0  0  0  4  0  0  0  0  0  0
    1.9903   -0.1809    0.0000 C   0  0  0  0  0  4  0  0  0  0  0  0
    1.3304   -1.3304    0.0000 C   0  0  0  0  0  4  0  0  0  0  0  0
    1.9903   -2.4799    0.0000 C   0  0  0  0  0  4  0  0  0  0  0  0
    3.3208   -2.4799    0.0000 C   0  0  0  0  0  4  0  0  0  0  0  0
    0.0000   -1.3304    0.0000 N   0  0  0  0  0  3  0  0  0  0  0  0
    6.6522   -1.3304    0.0000 C   0  0  0  0  0  4  0  0  0  0  0  0
    7.3121   -0.1809    0.0000 C   0  0  0  0  0  4  0  0  0  0  0  0
    8.6532   -0.1809    0.0000 C   0  0  0  0  0  4  0  0  0  0  0  0
    9.3131   -1.3304    0.0000 C   0  0  0  0  0  4  0  0  0  0  0  0
    8.6532   -2.4799    0.0000 C   0  0  0  0  0  4  0  0  0  0  0  0
    7.3121   -2.4799    0.0000 C   0  0  0  0  0  4  0  0  0  0  0  0
   10.6435   -1.3304    0.0000 N   0  0  0  0  0  3  0  0  0  0  0  0
  1  2  2  0  0  0  0 
  2  3  2  0  0  0  0 
  2  4  1  0  0  0  0 
  2 11  1  0  0  0  0 
  4  5  2  0  0  0  0 
  4  9  1  0  0  0  0 
  5  6  1  0  0  0  0 
  6  7  2  0  0  0  0 
  7  8  1  0  0  0  0 
  7 10  1  0  0  0  0 
  8  9  2  0  0  0  0 
 11 12  2  0  0  0  0 
 11 16  1  0  0  0  0 
 12 13  1  0  0  0  0 
 13 14  2  0  0  0  0 
 14 15  1  0  0  0  0 
 14 17  1  0  0  0  0 
 15 16  2  0  0  0  0 
M  END
> <CDK Fingerprint>
AICAAAAAAAAgAAAAAAAAAAABAAAgAABAAAAAEAAMAAIAAAFgAAAABAAAAACAAAAAAAAAAAAQAABAAAAQAACAAAAAAAAAABAAAEAAACAAAAAAICAAgAAAACABABAAAAAAIAAAAIAgQAAAAEACgBAAAAAEAACAACAgAQAEAAADEAA=

> <ActivityOutcome_CPDBAS_Rat>
active

> <TD50_Rat_mmol>
0.0902

$$$$

  CDK     0721101958

 18 19  0  0  0  0  0  0  0  0999 V2000
    3.4540    0.0000    0.0000 Cl  0  0  0  0  0  1  0  0  0  0  0  0
    4.6054   -0.6632    0.0000 C   0  0  0  0  0  4  0  0  0  0  0  0
    4.6054   -1.9895    0.0000 C   0  0  0  0  0  4  0  0  0  0  0  0
    5.7567   -2.6527    0.0000 C   0  0  0  0  0  4  0  0  0  0  0  0
    6.9080   -1.9895    0.0000 C   0  0  0  0  0  4  0  0  0  0  0  0
    8.0594   -2.6527    0.0000 C   0  0  0  0  0  4  0  0  0  0  0  0
    8.0594   -3.9882    0.0000 C   0  0  0  0  0  4  0  0  0  0  0  0
    6.9080   -4.6514    0.0000 C   0  0  0  0  0  4  0  0  0  0  0  0
    5.7567   -3.9882    0.0000 C   0  0  0  0  0  4  0  0  0  0  0  0
    9.2107   -4.6514    0.0000 Cl  0  0  0  0  0  1  0  0  0  0  0  0
    3.4540   -2.6527    0.0000 C   0  0  0  0  0  4  0  0  0  0  0  0
    3.4540   -3.9882    0.0000 C   0  0  0  0  0  4  0  0  0  0  0  0
    2.3027   -4.6514    0.0000 C   0  0  0  0  0  4  0  0  0  0  0  0
    1.1513   -3.9882    0.0000 C   0  0  0  0  0  4  0  0  0  0  0  0
    1.1513   -2.6527    0.0000 C   0  0  0  0  0  4  0  0  0  0  0  0
    2.3027   -1.9895    0.0000 C   0  0  0  0  0  4  0  0  0  0  0  0
    0.0000   -4.6514    0.0000 Cl  0  0  0  0  0  1  0  0  0  0  0  0
    5.7567    0.0000    0.0000 Cl  0  0  0  0  0  1  0  0  0  0  0  0
  1  2  1  0  0  0  0 
  2  3  1  0  0  0  0 
  2 18  1  0  0  0  0 
  3  4  1  0  0  0  0 
  3 11  1  0  0  0  0 
  4  5  2  0  0  0  0 
  4  9  1  0  0  0  0 
  5  6  1  0  0  0  0 
  6  7  2  0  0  0  0 
  7  8  1  0  0  0  0 
  7 10  1  0  0  0  0 
  8  9  2  0  0  0  0 
 11 12  2  0  0  0  0 
 11 16  1  0  0  0  0 
 12 13  1  0  0  0  0 
 13 14  2  0  0  0  0 
 14 15  1  0  0  0  0 
 14 17  1  0  0  0  0 
 15 16  2  0  0  0  0 
M  END
> <CDK Fingerprint>
AIAAABABAAAAAAAAAAAAAAAAAAAIAADAAAAAAAAAAAECAAAAIAAAAAYAAABAAQAAQAAAAQAECAAgAIAAECAAAAAAIAAIAAAAAAAAAIGBAAAAAIAAIACAAMAgBAAQAAECQEAEAAgAFACAAABBAAAAAAAAAAA=

> <ActivityOutcome_CPDBAS_Rat>
inactive

$$$$

  CDK     0721101958

 18 19  0  0  0  0  0  0  0  0999 V2000
    3.4540    0.0000    0.0000 Cl  0  0  0  0  0  1  0  0  0  0  0  0
    4.6054   -0.6632    0.0000 C   0  0  0  0  0  4  0  0  0  0  0  0
    4.6054   -1.9895    0.0000 C   0  0  0  0  0  4  0  0  0  0  0  0
    5.7567   -2.6527    0.0000 C   0  0  0  0  0  4  0  0  0  0  0  0
    6.9080   -1.9895    0.0000 C   0  0  0  0  0  4  0  0  0  0  0  0
    8.0594   -2.6527    0.0000 C   0  0  0  0  0  4  0  0  0  0  0  0
    8.0594   -3.9882    0.0000 C   0  0  0  0  0  4  0  0  0  0  0  0
    6.9080   -4.6514    0.0000 C   0  0  0  0  0  4  0  0  0  0  0  0
    5.7567   -3.9882    0.0000 C   0  0  0  0  0  4  0  0  0  0  0  0
    9.2107   -4.6514    0.0000 Cl  0  0  0  0  0  1  0  0  0  0  0  0
    3.4540   -2.6527    0.0000 C   0  0  0  0  0  4  0  0  0  0  0  0
    3.4540   -3.9882    0.0000 C   0  0  0  0  0  4  0  0  0  0  0  0
    2.3027   -4.6514    0.0000 C   0  0  0  0  0  4  0  0  0  0  0  0
    1.1513   -3.9882    0.0000 C   0  0  0  0  0  4  0  0  0  0  0  0
    1.1513   -2.6527    0.0000 C   0  0  0  0  0  4  0  0  0  0  0  0
    2.3027   -1.9895    0.0000 C   0  0  0  0  0  4  0  0  0  0  0  0
    0.0000   -4.6514    0.0000 Cl  0  0  0  0  0  1  0  0  0  0  0  0
    5.7567    0.0000    0.0000 Cl  0  0  0  0  0  1  0  0  0  0  0  0
  1  2  1  0  0  0  0 
  2  3  2  0  0  0  0 
  2 18  1  0  0  0  0 
  3  4  1  0  0  0  0 
  3 11  1  0  0  0  0 
  4  5  2  0  0  0  0 
  4  9  1  0  0  0  0 
  5  6  1  0  0  0  0 
  6  7  2  0  0  0  0 
  7  8  1  0  0  0  0 
  7 10  1  0  0  0  0 
  8  9  2  0  0  0  0 
 11 12  2  0  0  0  0 
 11 16  1  0  0  0  0 
 12 13  1  0  0  0  0 
 13 14  2  0  0  0  0 
 14 15  1  0  0  0  0 
 14 17  1  0  0  0  0 
 15 16  2  0  0  0  0 
M  END
> <CDK Fingerprint>
QAAAEAQAAAAAAAAAgAAAEAEAAAAAAAAAAAAAAAgAAAgAAMAAAAAAAAAABAIAAAAgAAAABAAQAEABQABAAAABAAQIAAAAABAQAAAAAAAgAAgAAABAAAAAAYEAAAAAgAAgABAAwCAEABAAgQJAQgwAAAAUAIAAAEEAAAAAAAAAAA==

> <ActivityOutcome_CPDBAS_Rat>
inactive

$$$$

  CDK     0721101958

 19 20  0  0  0  0  0  0  0  0999 V2000
    3.2800   -1.3268    0.0000 Cl  0  0  0  0  0  1  0  0  0  0  0  0
    4.6068   -1.3268    0.0000 C   0  0  0  0  0  4  0  0  0  0  0  0
    4.6068   -2.6535    0.0000 C   0  0  0  0  0  4  0  0  0  0  0  0
    5.7585   -3.3169    0.0000 C   0  0  0  0  0  4  0  0  0  0  0  0
    6.9102   -2.6535    0.0000 C   0  0  0  0  0  4  0  0  0  0  0  0
    8.0619   -3.3169    0.0000 C   0  0  0  0  0  4  0  0  0  0  0  0
    8.0619   -4.6529    0.0000 C   0  0  0  0  0  4  0  0  0  0  0  0
    6.9102   -5.3162    0.0000 C   0  0  0  0  0  4  0  0  0  0  0  0
    5.7585   -4.6529    0.0000 C   0  0  0  0  0  4  0  0  0  0  0  0
    9.2136   -5.3162    0.0000 Cl  0  0  0  0  0  1  0  0  0  0  0  0
    3.4551   -3.3169    0.0000 C   0  0  0  0  0  4  0  0  0  0  0  0
    3.4551   -4.6529    0.0000 C   0  0  0  0  0  4  0  0  0  0  0  0
    2.3034   -5.3162    0.0000 C   0  0  0  0  0  4  0  0  0  0  0  0
    1.1517   -4.6529    0.0000 C   0  0  0  0  0  4  0  0  0  0  0  0
    1.1517   -3.3169    0.0000 C   0  0  0  0  0  4  0  0  0  0  0  0
    2.3034   -2.6535    0.0000 C   0  0  0  0  0  4  0  0  0  0  0  0
    0.0000   -5.3162    0.0000 Cl  0  0  0  0  0  1  0  0  0  0  0  0
    4.6068    0.0000    0.0000 Cl  0  0  0  0  0  1  0  0  0  0  0  0
    5.9336   -1.3268    0.0000 Cl  0  0  0  0  0  1  0  0  0  0  0  0
  1  2  1  0  0  0  0 
  2  3  1  0  0  0  0 
  2 18  1  0  0  0  0 
  2 19  1  0  0  0  0 
  3  4  1  0  0  0  0 
  3 11  1  0  0  0  0 
  4  5  2  0  0  0  0 
  4  9  1  0  0  0  0 
  5  6  1  0  0  0  0 
  6  7  2  0  0  0  0 
  7  8  1  0  0  0  0 
  7 10  1  0  0  0  0 
  8  9  2  0  0  0  0 
 11 12  2  0  0  0  0 
 11 16  1  0  0  0  0 
 12 13  1  0  0  0  0 
 13 14  2  0  0  0  0 
 14 15  1  0  0  0  0 
 14 17  1  0  0  0  0 
 15 16  2  0  0  0  0 
M  END
> <CDK Fingerprint>
AIAAABABAAAAAAAAAAAAAAAAAAAIAADAAAAAAAAAAAECAAAAIAAAAAYAAABAAQAAQAAAAQAECAAgAIAAECAAAAAAIAAIAAAAAAAAAIGBAAAAAIAAIACAAMAgBAAQAAECQEAEAAgAFACAAABBAAAAAAAAAAA=

> <ActivityOutcome_CPDBAS_Rat>
active

> <TD50_Rat_mmol>
0.239

$$$$

  CDK     0721101958

 23 24  0  0  0  0  0  0  0  0999 V2000
    5.8146   -4.3836    0.0000 Br  0  0  0  0  0  1  0  0  0  0  0  0
    6.6410   -3.3860    0.0000 C   0  0  0  0  0  4  0  0  0  0  0  0
    6.4193   -2.1162    0.0000 C   0  0  0  0  0  4  0  0  0  0  0  0
    7.4169   -1.2798    0.0000 C   0  0  0  0  0  4  0  0  0  0  0  0
    8.6363   -1.7232    0.0000 C   0  0  0  0  0  4  0  0  0  0  0  0
    8.8580   -3.0030    0.0000 C   0  0  0  0  0  4  0  0  0  0  0  0
    7.8603   -3.8294    0.0000 C   0  0  0  0  0  4  0  0  0  0  0  0
    8.0921   -5.1092    0.0000 Br  0  0  0  0  0  1  0  0  0  0  0  0
   10.0773   -3.4464    0.0000 Br  0  0  0  0  0  1  0  0  0  0  0  0
    9.6238   -0.8868    0.0000 Br  0  0  0  0  0  1  0  0  0  0  0  0
    7.1851    0.0000    0.0000 Br  0  0  0  0  0  1  0  0  0  0  0  0
    4.8371   -1.5318    0.0000 O   0  0  0  0  0  2  0  0  0  0  0  0
    3.3759   -2.3782    0.0000 C   0  0  0  0  0  4  0  0  0  0  0  0
    3.3759   -3.6782    0.0000 C   0  0  0  0  0  4  0  0  0  0  0  0
    2.2472   -4.3232    0.0000 C   0  0  0  0  0  4  0  0  0  0  0  0
    1.1287   -3.6782    0.0000 C   0  0  0  0  0  4  0  0  0  0  0  0
    1.1287   -2.3782    0.0000 C   0  0  0  0  0  4  0  0  0  0  0  0
    2.2472   -1.7333    0.0000 C   0  0  0  0  0  4  0  0  0  0  0  0
    2.2472   -0.4333    0.0000 Br  0  0  0  0  0  1  0  0  0  0  0  0
    0.0000   -1.7333    0.0000 Br  0  0  0  0  0  1  0  0  0  0  0  0
    0.0000   -4.3232    0.0000 Br  0  0  0  0  0  1  0  0  0  0  0  0
    2.2472   -5.6231    0.0000 Br  0  0  0  0  0  1  0  0  0  0  0  0
    4.3635   -4.5146    0.0000 Br  0  0  0  0  0  1  0  0  0  0  0  0
  1  2  1  0  0  0  0 
  2  3  2  0  0  0  0 
  2  7  1  0  0  0  0 
  3  4  1  0  0  0  0 
  3 12  1  0  0  0  0 
  4  5  2  0  0  0  0 
  4 11  1  0  0  0  0 
  5  6  1  0  0  0  0 
  5 10  1  0  0  0  0 
  6  7  2  0  0  0  0 
  6  9  1  0  0  0  0 
  7  8  1  0  0  0  0 
 12 13  1  0  0  0  0 
 13 14  2  0  0  0  0 
 13 18  1  0  0  0  0 
 14 15  1  0  0  0  0 
 14 23  1  0  0  0  0 
 15 16  2  0  0  0  0 
 15 22  1  0  0  0  0 
 16 17  1  0  0  0  0 
 16 21  1  0  0  0  0 
 17 18  2  0  0  0  0 
 17 20  1  0  0  0  0 
 18 19  1  0  0  0  0 
M  END
> <CDK Fingerprint>
EAAABAABgARgAgAAAAAAAAEAEoAAAIAAAAAgABAAAQIC4QAAIAQAAAAAAAAQAAgAACAAAAAAQAAAAABAAAAAAhQAAAAAAAgAAAQBAQiBAAAAAAAAGgAAAA4AAAEAACABBAEAICAgAACAAgAAAAAAAAAAgAgAAAAAAAAIIAAA

> <ActivityOutcome_CPDBAS_Rat>
active

> <TD50_Rat_mmol>
3.48

$$$$

  CDK     0721101958

 32 36  0  0  0  0  0  0  0  0999 V2000
    8.0241   -4.4523    0.0000 C   0  0  0  0  0  4  0  0  0  0  0  0
    6.7916   -4.8673    0.0000 C   0  0  0  0  0  4  0  0  0  0  0  0
    6.7916   -6.2005    0.0000 C   0  0  0  0  0  4  0  0  0  0  0  0
    3.3958   -6.8167    0.0000 C   0  0  0  0  0  4  0  0  0  0  0  0
    8.7913   -3.4084    0.0000 N   0  0  0  0  0  3  0  0  0  0  0  0
    5.6848   -6.8293    0.0000 C   0  0  0  0  0  4  0  0  0  0  0  0
    8.7536   -5.5339    0.0000 C   0  0  0  0  0  4  0  0  0  0  0  0
    4.5277   -6.1879    0.0000 C   0  0  0  0  0  4  0  0  0  0  0  0
    3.3958   -8.1122    0.0000 C   0  0  0  0  0  4  0  0  0  0  0  0
    5.6848   -4.2133    0.0000 C   0  0  0  0  0  4  0  0  0  0  0  0
    4.5277   -4.8673    0.0000 C   0  0  0  0  0  4  0  0  0  0  0  0
    2.2890   -6.1879    0.0000 C   0  0  0  0  0  4  0  0  0  0  0  0
   10.0113   -5.1314    0.0000 O   0  0  0  0  0  2  0  0  0  0  0  0
    8.0241   -6.5904    0.0000 C   0  0  0  0  0  4  0  0  0  0  0  0
   10.0113   -3.8234    0.0000 C   0  0  0  0  0  4  0  0  0  0  0  0
    8.0241   -2.1381    0.0000 C   0  0  0  0  0  4  0  0  0  0  0  0
    2.2890   -8.7536    0.0000 C   0  0  0  0  0  4  0  0  0  0  0  0
    5.6848   -8.1122    0.0000 C   0  0  0  0  0  4  0  0  0  0  0  0
    1.1697   -6.8293    0.0000 C   0  0  0  0  0  4  0  0  0  0  0  0
    1.1697   -8.1122    0.0000 C   0  0  0  0  0  4  0  0  0  0  0  0
    4.5277   -8.7536    0.0000 C   0  0  0  0  0  4  0  0  0  0  0  0
   11.4074   -1.2954    0.0000 C   0  0  0  0  0  4  0  0  0  0  0  0
    9.0806   -1.4715    0.0000 C   0  0  0  0  0  4  0  0  0  0  0  0
    6.9677   -1.4715    0.0000 O   0  0  0  0  0  2  0  0  0  0  0  0
   10.2377   -2.1004    0.0000 O   0  0  0  0  0  2  0  0  0  0  0  0
   11.4074    0.0000    0.0000 O   0  0  0  0  0  2  0  0  0  0  0  0
    0.0000   -8.7410    0.0000 O   0  0  0  0  0  2  0  0  0  0  0  0
    6.7916   -3.5593    0.0000 C   0  0  0  0  0  4  0  0  0  0  0  0
    3.3958   -4.2133    0.0000 O   0  0  0  0  0  2  0  0  0  0  0  0
    3.3958   -5.4836    0.0000 C   0  0  0  0  0  4  0  0  0  0  0  0
   11.0678   -3.0688    0.0000 C   0  0  0  0  0  4  0  0  0  0  0  0
   12.5770   -1.8740    0.0000 C   0  0  0  0  0  4  0  0  0  0  0  0
  1  2  1  0  0  0  0 
  1  5  1  6  0  0  0 
  1  7  1  0  0  0  0 
  1 16  1  0  0  0  0 
  2  3  1  0  0  0  0 
  2 10  1  0  0  0  0 
  2 28  1  1  0  0  0 
  3  6  1  0  0  0  0 
  3 14  1  0  0  0  0 
  4  8  1  0  0  0  0 
  4  9  1  0  0  0  0 
  4 12  1  0  0  0  0 
  4 30  1  1  0  0  0 
  5 15  2  0  0  0  0 
  6 18  1  0  0  0  0 
  6  8  1  0  0  0  0 
  7 13  1  6  0  0  0 
  7 14  1  0  0  0  0 
  8 11  1  0  0  0  0 
  9 17  2  0  0  0  0 
  9 21  1  0  0  0  0 
 10 11  1  0  0  0  0 
 11 29  1  1  0  0  0 
 12 19  2  0  0  0  0 
 13 15  1  0  0  0  0 
 15 31  1  0  0  0  0 
 16 23  1  0  0  0  0 
 16 24  2  0  0  0  0 
 17 20  1  0  0  0  0 
 18 21  1  0  0  0  0 
 19 20  1  0  0  0  0 
 20 27  2  0  0  0  0 
 22 25  1  0  0  0  0 
 22 26  2  0  0  0  0 
 22 32  1  0  0  0  0 
 23 25  1  0  0  0  0 
M  END
> <CDK Fingerprint>
AMKAIAEBQgEqdICC1QEEABAkAgKAJGAE4AQAAMABAEAxUwjgAIsiAYAAAQExEAnYYGIiAYWIFIBAABAjRGEGAAAABAEEQABAAAUUAUAABQkAQAEIAEADQADBEIAAACBoAQBIBQEDQUEkIIgEMDQUgbAEgAAB8FioAIABRF4iAGA=

> <ActivityOutcome_CPDBAS_Rat>
active

$$$$

  CDK     0721101958

 21 24  0  0  0  0  0  0  0  0999 V2000
    3.4767   -3.6917    0.0000 C   0  0  0  0  0  4  0  0  0  0  0  0
    6.9354   -1.6846    0.0000 C   0  0  0  0  0  4  0  0  0  0  0  0
    3.4767   -5.0179    0.0000 C   0  0  0  0  0  4  0  0  0  0  0  0
    4.6146   -3.0197    0.0000 C   0  0  0  0  0  4  0  0  0  0  0  0
    6.9354   -3.0197    0.0000 C   0  0  0  0  0  4  0  0  0  0  0  0
    5.7795   -3.6917    0.0000 C   0  0  0  0  0  4  0  0  0  0  0  0
    4.6146   -5.6809    0.0000 C   0  0  0  0  0  4  0  0  0  0  0  0
    8.1899   -1.2724    0.0000 C   0  0  0  0  0  4  0  0  0  0  0  0
    5.7705   -1.0305    0.0000 C   0  0  0  0  0  4  0  0  0  0  0  0
    5.7795   -5.0358    0.0000 C   0  0  0  0  0  4  0  0  0  0  0  0
    4.6146   -1.6846    0.0000 C   0  0  0  0  0  4  0  0  0  0  0  0
    2.3208   -3.0197    0.0000 C   0  0  0  0  0  4  0  0  0  0  0  0
    8.1899   -3.4229    0.0000 C   0  0  0  0  0  4  0  0  0  0  0  0
    2.3208   -5.6809    0.0000 C   0  0  0  0  0  4  0  0  0  0  0  0
    8.9605   -2.3476    0.0000 C   0  0  0  0  0  4  0  0  0  0  0  0
    8.6200    0.0000    0.0000 O   0  0  0  0  0  2  0  0  0  0  0  0
    1.1559   -3.6917    0.0000 C   0  0  0  0  0  4  0  0  0  0  0  0
    1.1559   -5.0179    0.0000 C   0  0  0  0  0  4  0  0  0  0  0  0
    3.4767   -2.3566    0.0000 C   0  0  0  0  0  4  0  0  0  0  0  0
    6.9354   -0.3943    0.0000 C   0  0  0  0  0  4  0  0  0  0  0  0
    0.0000   -5.6809    0.0000 O   0  0  0  0  0  2  0  0  0  0  0  0
  1  3  1  0  0  0  0 
  1  4  1  0  0  0  0 
  1 12  1  0  0  0  0 
  1 19  1  1  0  0  0 
  2  9  1  0  0  0  0 
  2  8  1  0  0  0  0 
  2 20  1  1  0  0  0 
  2  5  1  0  0  0  0 
  3  7  2  0  0  0  0 
  3 14  1  0  0  0  0 
  4  6  1  0  0  0  0 
  4 11  1  0  0  0  0 
  5  6  1  0  0  0  0 
  5 13  1  0  0  0  0 
  6 10  1  0  0  0  0 
  7 10  1  0  0  0  0 
  8 16  2  0  0  0  0 
  8 15  1  0  0  0  0 
  9 11  1  0  0  0  0 
 12 17  1  0  0  0  0 
 13 15  1  0  0  0  0 
 14 18  1  0  0  0  0 
 17 18  1  0  0  0  0 
 18 21  1  1  0  0  0 
M  END
> <CDK Fingerprint>
QAAAAAAAAAAAAAIRAAQAAAAIBogEQABAAAAAAAEAAAFRCOAAAAAAAAAAACAQABAgACAAAAAQAEAAACBAQAQAAAAAIAQABAAIAARAAiABAQAAAAAAAAAAAAAQAAAAAAAAAEAAAQBAACAAAAAAEAABAAAAAACQGAAAAABABAAAIA==

> <ActivityOutcome_CPDBAS_Rat>
active

> <TD50_Rat_mmol>
0.29

$$$$

  CDK     0721101958

 24 27  0  0  0  0  0  0  0  0999 V2000
    5.7622   -3.6914    0.0000 C   0  0  0  0  0  4  0  0  0  0  0  0
    9.2285   -1.6881    0.0000 C   0  0  0  0  0  4  0  0  0  0  0  0
    5.7622   -5.0306    0.0000 C   0  0  0  0  0  4  0  0  0  0  0  0
    6.9101   -3.0161    0.0000 C   0  0  0  0  0  4  0  0  0  0  0  0
    9.2285   -3.0161    0.0000 C   0  0  0  0  0  4  0  0  0  0  0  0
    8.0805   -3.6914    0.0000 C   0  0  0  0  0  4  0  0  0  0  0  0
    6.9101   -5.6834    0.0000 C   0  0  0  0  0  4  0  0  0  0  0  0
   10.4889   -1.2717    0.0000 C   0  0  0  0  0  4  0  0  0  0  0  0
    8.0580   -1.0354    0.0000 C   0  0  0  0  0  4  0  0  0  0  0  0
    8.0805   -5.0419    0.0000 C   0  0  0  0  0  4  0  0  0  0  0  0
    6.9101   -1.6881    0.0000 C   0  0  0  0  0  4  0  0  0  0  0  0
    4.6142   -3.0161    0.0000 C   0  0  0  0  0  4  0  0  0  0  0  0
   10.4889   -3.4213    0.0000 C   0  0  0  0  0  4  0  0  0  0  0  0
    4.6142   -5.6834    0.0000 C   0  0  0  0  0  4  0  0  0  0  0  0
   11.2542   -2.3409    0.0000 C   0  0  0  0  0  4  0  0  0  0  0  0
   10.9166    0.0000    0.0000 O   0  0  0  0  0  2  0  0  0  0  0  0
    3.4550   -3.6914    0.0000 C   0  0  0  0  0  4  0  0  0  0  0  0
    3.4550   -5.0306    0.0000 C   0  0  0  0  0  4  0  0  0  0  0  0
    5.7622   -2.3634    0.0000 C   0  0  0  0  0  4  0  0  0  0  0  0
    9.2285   -0.4052    0.0000 C   0  0  0  0  0  4  0  0  0  0  0  0
    2.3071   -5.6834    0.0000 O   0  0  0  0  0  2  0  0  0  0  0  0
    1.1479   -5.0194    0.0000 C   0  0  0  0  0  4  0  0  0  0  0  0
    1.1479   -3.6914    0.0000 O   0  0  0  0  0  2  0  0  0  0  0  0
    0.0000   -5.6834    0.0000 C   0  0  0  0  0  4  0  0  0  0  0  0
  1  3  1  0  0  0  0 
  1  4  1  0  0  0  0 
  1 12  1  0  0  0  0 
  1 19  1  1  0  0  0 
  2  9  1  0  0  0  0 
  2  8  1  0  0  0  0 
  2 20  1  1  0  0  0 
  2  5  1  0  0  0  0 
  3  7  2  0  0  0  0 
  3 14  1  0  0  0  0 
  4  6  1  0  0  0  0 
  4 11  1  0  0  0  0 
  5  6  1  0  0  0  0 
  5 13  1  0  0  0  0 
  6 10  1  0  0  0  0 
  7 10  1  0  0  0  0 
  8 16  2  0  0  0  0 
  8 15  1  0  0  0  0 
  9 11  1  0  0  0  0 
 12 17  1  0  0  0  0 
 13 15  1  0  0  0  0 
 14 18  1  0  0  0  0 
 17 18  1  0  0  0  0 
 18 21  1  1  0  0  0 
 21 22  1  0  0  0  0 
 22 23  2  0  0  0  0 
 22 24  1  0  0  0  0 
M  END
> <CDK Fingerprint>
AMCAAAACAAAIAAACEQAEBBAgCAaIBEAAwAAAAIABAAABUQjgAIAAAAAAAAEgEABQIAMgAAAAEABAAAAgQEQEAAAAACAEBAQACAwEQEIgAQEAAAAQAAAAQABBEAAAAAAIAABIAQEAQAAgAABAQBAAAwAAAAAA0BiAAAAAQASAACA=

> <ActivityOutcome_CPDBAS_Rat>
active

> <TD50_Rat_mmol>
0.15

$$$$

  CDK     0721101958

 28 30  0  0  0  0  0  0  0  0999 V2000
    4.1832   -1.0333    0.0000 C   0  0  0  0  0  4  0  0  0  0  0  0
    3.4665   -2.1999    0.0000 C   0  0  0  0  0  4  0  0  0  0  0  0
    4.8498   -2.1999    0.0000 C   0  0  0  0  0  4  0  0  0  0  0  0
    6.0498   -2.8666    0.0000 C   0  0  0  0  0  4  0  0  0  0  0  0
    2.3499   -2.8332    0.0000 C   0  0  0  0  0  4  0  0  0  0  0  0
    7.2164   -2.1999    0.0000 O   0  0  0  0  0  2  0  0  0  0  0  0
    1.1500   -2.1999    0.0000 C   0  0  0  0  0  4  0  0  0  0  0  0
    8.3664   -5.3998    0.0000 N   0  0  0  0  0  3  0  0  0  0  0  0
    8.3664   -4.1999    0.0000 C   0  0  0  0  0  4  0  0  0  0  0  0
    8.3664   -2.8666    0.0000 C   0  0  0  0  0  4  0  0  0  0  0  0
    9.5663   -2.2333    0.0000 C   0  0  0  0  0  4  0  0  0  0  0  0
    6.0498   -4.1999    0.0000 O   0  0  0  0  0  2  0  0  0  0  0  0
   10.7330   -2.8999    0.0000 C   0  0  0  0  0  4  0  0  0  0  0  0
   11.9496   -2.2833    0.0000 C   0  0  0  0  0  4  0  0  0  0  0  0
   13.0996   -2.8832    0.0000 O   0  0  0  0  0  2  0  0  0  0  0  0
    4.8498    0.0000    0.0000 C   0  0  0  0  0  4  0  0  0  0  0  0
    3.6332    0.0000    0.0000 C   0  0  0  0  0  4  0  0  0  0  0  0
    0.0000   -2.8332    0.0000 Br  0  0  0  0  0  1  0  0  0  0  0  0
    1.1500   -0.8333    0.0000 Br  0  0  0  0  0  1  0  0  0  0  0  0
   14.2995   -2.1999    0.0000 C   0  0  0  0  0  4  0  0  0  0  0  0
    9.5663   -0.9000    0.0000 C   0  0  0  0  0  4  0  0  0  0  0  0
   10.7330   -0.1500    0.0000 C   0  0  0  0  0  4  0  0  0  0  0  0
   11.9496   -0.9000    0.0000 C   0  0  0  0  0  4  0  0  0  0  0  0
   14.2995   -0.9000    0.0000 C   0  0  0  0  0  4  0  0  0  0  0  0
   15.4995   -2.8832    0.0000 C   0  0  0  0  0  4  0  0  0  0  0  0
   16.6661   -2.2833    0.0000 C   0  0  0  0  0  4  0  0  0  0  0  0
   15.4328   -0.2167    0.0000 C   0  0  0  0  0  4  0  0  0  0  0  0
   16.6661   -0.8666    0.0000 C   0  0  0  0  0  4  0  0  0  0  0  0
  1  2  1  0  0  0  0 
  1  3  1  0  0  0  0 
  1 16  1  0  0  0  0 
  1 17  1  0  0  0  0 
  2  5  1  6  0  0  0 
  2  3  1  0  0  0  0 
  3  4  1  6  0  0  0 
  4  6  1  0  0  0  0 
  4 12  2  0  0  0  0 
  5  7  2  0  0  0  0 
  6 10  1  0  0  0  0 
  7 18  1  0  0  0  0 
  7 19  1  0  0  0  0 
  8  9  3  0  0  0  0 
 10  9  1  1  0  0  0 
 10 11  1  0  0  0  0 
 11 13  1  0  0  0  0 
 11 21  2  0  0  0  0 
 13 14  2  0  0  0  0 
 14 15  1  0  0  0  0 
 14 23  1  0  0  0  0 
 15 20  1  0  0  0  0 
 20 24  1  0  0  0  0 
 20 25  2  0  0  0  0 
 21 22  1  0  0  0  0 
 22 23  2  0  0  0  0 
 24 27  2  0  0  0  0 
 25 26  1  0  0  0  0 
 26 28  2  0  0  0  0 
 27 28  1  0  0  0  0 
M  END
> <CDK Fingerprint>
A8AAAEAAAAEAKgACAAEAABABAAAChBAAgAQAAMAAAIiJAQrhEIEApIZAAIEAgABQKoJkIAAAECBAgAAgQAQAFIAOHCAASIAACgQCBkMAAIAAAgBAIAEGQADAEkAAIICCJYBBIUAgJKADUAACQBgMCYCCFAiF0BAgABEEIAAiICQ=

> <ActivityOutcome_CPDBAS_Rat>
inactive

$$$$

  CDK     0721101958

 42 47  0  0  0  0  0  0  0  0999 V2000
    4.5135   -1.9618    0.0000 C   0  0  0  0  0  4  0  0  0  0  0  0
    4.5135   -0.6343    0.0000 C   0  0  0  0  0  4  0  0  0  0  0  0
    3.4073   -2.6255    0.0000 N   0  0  0  0  0  3  0  0  0  0  0  0
    6.7850   -5.8558    0.0000 C   0  0  0  0  0  4  0  0  0  0  0  0
    6.7850   -4.5578    0.0000 C   0  0  0  0  0  4  0  0  0  0  0  0
    5.6640   -2.6255    0.0000 C   0  0  0  0  0  4  0  0  0  0  0  0
    6.7703   -1.9618    0.0000 N   0  0  0  0  0  3  0  0  0  0  0  0
    7.8470   -3.9383    0.0000 C   0  0  0  0  0  4  0  0  0  0  0  0
    9.0123   -5.8558    0.0000 C   0  0  0  0  0  4  0  0  0  0  0  0
   11.3133   -5.8705    0.0000 C   0  0  0  0  0  4  0  0  0  0  0  0
    5.6640   -3.9383    0.0000 C   0  0  0  0  0  4  0  0  0  0  0  0
    2.2568   -0.6343    0.0000 C   0  0  0  0  0  4  0  0  0  0  0  0
    7.9060   -6.5048    0.0000 C   0  0  0  0  0  4  0  0  0  0  0  0
    2.2568   -1.9618    0.0000 C   0  0  0  0  0  4  0  0  0  0  0  0
   11.3133   -4.5873    0.0000 C   0  0  0  0  0  4  0  0  0  0  0  0
   11.3133   -1.9618    0.0000 C   0  0  0  0  0  4  0  0  0  0  0  0
    5.6640   -6.5785    0.0000 C   0  0  0  0  0  4  0  0  0  0  0  0
   10.1628   -6.5343    0.0000 O   0  0  0  0  0  2  0  0  0  0  0  0
    7.8470   -2.6255    0.0000 C   0  0  0  0  0  4  0  0  0  0  0  0
   12.4343   -2.6403    0.0000 C   0  0  0  0  0  4  0  0  0  0  0  0
   10.1923   -2.6403    0.0000 C   0  0  0  0  0  4  0  0  0  0  0  0
    9.0123   -4.5578    0.0000 C   0  0  0  0  0  4  0  0  0  0  0  0
    5.6198    0.0000    0.0000 C   0  0  0  0  0  4  0  0  0  0  0  0
   12.4343   -3.9530    0.0000 C   0  0  0  0  0  4  0  0  0  0  0  0
   10.1923   -3.9530    0.0000 C   0  0  0  0  0  4  0  0  0  0  0  0
    6.7703   -0.6343    0.0000 C   0  0  0  0  0  4  0  0  0  0  0  0
   12.4343   -6.5343    0.0000 O   0  0  0  0  0  2  0  0  0  0  0  0
    4.5430   -5.8853    0.0000 O   0  0  0  0  0  2  0  0  0  0  0  0
   11.3133   -0.6638    0.0000 O   0  0  0  0  0  2  0  0  0  0  0  0
    7.9060   -7.8323    0.0000 O   0  0  0  0  0  2  0  0  0  0  0  0
    5.6640   -7.8618    0.0000 O   0  0  0  0  0  2  0  0  0  0  0  0
   13.5995   -1.9618    0.0000 O   0  0  0  0  0  2  0  0  0  0  0  0
    9.0860   -1.9470    0.0000 O   0  0  0  0  0  2  0  0  0  0  0  0
    1.1505    0.0000    0.0000 C   0  0  0  0  0  4  0  0  0  0  0  0
    1.1505   -2.6255    0.0000 C   0  0  0  0  0  4  0  0  0  0  0  0
   12.4343    0.0000    0.0000 C   0  0  0  0  0  4  0  0  0  0  0  0
    9.0270   -8.4960    0.0000 C   0  0  0  0  0  4  0  0  0  0  0  0
    9.0860   -0.5458    0.0000 C   0  0  0  0  0  4  0  0  0  0  0  0
    6.8145   -8.4960    0.0000 C   0  0  0  0  0  4  0  0  0  0  0  0
   14.7500   -2.6255    0.0000 C   0  0  0  0  0  4  0  0  0  0  0  0
    0.0000   -0.6343    0.0000 C   0  0  0  0  0  4  0  0  0  0  0  0
    0.0000   -1.9618    0.0000 C   0  0  0  0  0  4  0  0  0  0  0  0
  1  2  2  0  0  0  0 
  1  3  1  0  0  0  0 
  1  6  1  0  0  0  0 
  2 12  1  0  0  0  0 
  2 23  1  0  0  0  0 
  3 14  1  0  0  0  0 
  4  5  1  0  0  0  0 
  4 13  1  0  0  0  0 
  4 17  1  1  0  0  0 
  5 11  1  0  0  0  0 
  5  8  1  0  0  0  0 
  6  7  1  0  0  0  0 
  6 11  1  0  0  0  0 
  7 19  1  0  0  0  0 
  7 26  1  0  0  0  0 
  8 22  1  0  0  0  0 
  8 19  1  0  0  0  0 
  9 22  1  0  0  0  0 
  9 18  1  1  0  0  0 
  9 13  1  0  0  0  0 
 10 18  1  0  0  0  0 
 10 15  1  0  0  0  0 
 10 27  2  0  0  0  0 
 12 34  1  0  0  0  0 
 12 14  2  0  0  0  0 
 13 30  1  6  0  0  0 
 14 35  1  0  0  0  0 
 15 24  1  0  0  0  0 
 15 25  2  0  0  0  0 
 16 21  2  0  0  0  0 
 16 29  1  0  0  0  0 
 16 20  1  0  0  0  0 
 17 28  2  0  0  0  0 
 17 31  1  0  0  0  0 
 20 24  2  0  0  0  0 
 20 32  1  0  0  0  0 
 21 25  1  0  0  0  0 
 21 33  1  0  0  0  0 
 23 26  1  0  0  0  0 
 29 36  1  0  0  0  0 
 30 37  1  0  0  0  0 
 31 39  1  0  0  0  0 
 32 40  1  0  0  0  0 
 33 38  1  0  0  0  0 
 34 41  2  0  0  0  0 
 35 42  2  0  0  0  0 
 41 42  1  0  0  0  0 
M  END
> <CDK Fingerprint>
AIKglCtrkCeBarqCnhfB/koQfQIQDEAICMADIiGgItwkv0EKeROk25SJpIBJKJgEWCGWO6QMiEBgTMBRasD0CKARLx0IDIKEQgR9F1TiAGGIDZMRg6CgzkgZlbAkGSjKiCpByGNGbWyhQTgqK0EaBCn4kz6skVY85kjnBCYmIiiR

> <ActivityOutcome_CPDBAS_Rat>
inactive

$$$$

  CDK     0721101958

 28 31  0  0  0  0  0  0  0  0999 V2000
    7.3085    4.2282    0.0000 C   0  0  0  0  0  4  0  0  0  0  0  0
    4.8875    2.8189    0.0000 C   0  0  0  0  0  4  0  0  0  0  0  0
    3.6713    2.1255    0.0000 C   0  0  0  0  0  4  0  0  0  0  0  0
    7.3085    2.8189    0.0000 C   0  0  0  0  0  4  0  0  0  0  0  0
    6.0923    2.1255    0.0000 C   0  0  0  0  0  4  0  0  0  0  0  0
    8.6498    4.6715    0.0000 C   0  0  0  0  0  4  0  0  0  0  0  0
    3.6713    0.7160    0.0000 C   0  0  0  0  0  4  0  0  0  0  0  0
    4.8875    4.2282    0.0000 C   0  0  0  0  0  4  0  0  0  0  0  0
    6.0923    4.9215    0.0000 C   0  0  0  0  0  4  0  0  0  0  0  0
    9.4794    3.5235    0.0000 C   0  0  0  0  0  4  0  0  0  0  0  0
    2.4664    2.8189    0.0000 C   0  0  0  0  0  4  0  0  0  0  0  0
    8.6498    2.4097    0.0000 C   0  0  0  0  0  4  0  0  0  0  0  0
    2.4664    0.0114    0.0000 C   0  0  0  0  0  4  0  0  0  0  0  0
    9.0248    6.0241    0.0000 C   0  0  0  0  0  4  0  0  0  0  0  0
    6.0923    0.7160    0.0000 C   0  0  0  0  0  4  0  0  0  0  0  0
    1.2503    2.1255    0.0000 C   0  0  0  0  0  4  0  0  0  0  0  0
    1.2503    0.7160    0.0000 C   0  0  0  0  0  4  0  0  0  0  0  0
    4.8875    0.0114    0.0000 C   0  0  0  0  0  4  0  0  0  0  0  0
    4.8761    1.6481    0.0000 F   0  0  0  0  0  1  0  0  0  0  0  0
    8.0359    7.0357    0.0000 O   0  0  0  0  0  2  0  0  0  0  0  0
    0.0000    0.0000    0.0000 O   0  0  0  0  0  2  0  0  0  0  0  0
   10.0478    4.6715    0.0000 O   0  0  0  0  0  2  0  0  0  0  0  0
    7.3085    5.6604    0.0000 C   0  0  0  0  0  4  0  0  0  0  0  0
    3.6485    4.9557    0.0000 O   0  0  0  0  0  2  0  0  0  0  0  0
    3.6713    3.5235    0.0000 C   0  0  0  0  0  4  0  0  0  0  0  0
   10.8775    3.5349    0.0000 C   0  0  0  0  0  4  0  0  0  0  0  0
   10.3774    6.3764    0.0000 C   0  0  0  0  0  4  0  0  0  0  0  0
   11.3662    5.3649    0.0000 O   0  0  0  0  0  2  0  0  0  0  0  0
  1  4  1  0  0  0  0 
  1  6  1  0  0  0  0 
  1  9  1  0  0  0  0 
  1 23  1  1  0  0  0 
  2  8  1  0  0  0  0 
  2  3  1  0  0  0  0 
  2 19  1  6  0  0  0 
  2  5  1  0  0  0  0 
  3  7  1  0  0  0  0 
  3 11  1  0  0  0  0 
  3 25  1  1  0  0  0 
  4  5  1  0  0  0  0 
  4 12  1  0  0  0  0 
  5 15  1  0  0  0  0 
  6 10  1  0  0  0  0 
  6 14  1  0  0  0  0 
  6 22  1  6  0  0  0 
  7 13  2  0  0  0  0 
  7 18  1  0  0  0  0 
  8  9  1  0  0  0  0 
  8 24  1  1  0  0  0 
 10 26  1  6  0  0  0 
 10 12  1  0  0  0  0 
 11 16  2  0  0  0  0 
 13 17  1  0  0  0  0 
 14 20  2  0  0  0  0 
 14 27  1  0  0  0  0 
 15 18  1  0  0  0  0 
 16 17  1  0  0  0  0 
 17 21  2  0  0  0  0 
 27 28  1  0  0  0  0 
M  END
> <CDK Fingerprint>
QAAAACEAAAAgAAIVAAQAAAAAAoBEQADAAAAQQAEIACFRCOAIAIIAIAABACAQARAgICIAABgQAAAAECBEQAQAAAAAAQRIAAQAATQAAAABAAAAAAAAAAAAAAAwAAAAAAABAEAAAABAACAAAAAAEBSBkAAAAACwOIAIAAFAViAEIA==

> <ActivityOutcome_CPDBAS_Rat>
inactive

$$$$

  CDK     0721101958

 20 22  0  0  0  0  0  0  0  0999 V2000
    6.5477   -2.5129    0.0000 N   0  0  0  0  0  3  0  0  0  0  0  0
    7.6980   -3.1854    0.0000 C   0  0  0  0  0  4  0  0  0  0  0  0
    7.6980   -4.5126    0.0000 O   0  0  0  0  0  2  0  0  0  0  0  0
    8.8482   -2.5129    0.0000 C   0  0  0  0  0  4  0  0  0  0  0  0
    6.5477   -1.1857    0.0000 C   0  0  0  0  0  4  0  0  0  0  0  0
    5.3974   -0.5220    0.0000 O   0  0  0  0  0  2  0  0  0  0  0  0
    7.6980   -0.5220    0.0000 C   0  0  0  0  0  4  0  0  0  0  0  0
    5.3974   -3.1854    0.0000 C   0  0  0  0  0  4  0  0  0  0  0  0
    4.2472   -2.5129    0.0000 C   0  0  0  0  0  4  0  0  0  0  0  0
    3.9640   -1.2211    0.0000 C   0  0  0  0  0  4  0  0  0  0  0  0
    2.6456   -1.0795    0.0000 C   0  0  0  0  0  4  0  0  0  0  0  0
    2.1059   -2.2917    0.0000 C   0  0  0  0  0  4  0  0  0  0  0  0
    3.0880   -3.1854    0.0000 C   0  0  0  0  0  4  0  0  0  0  0  0
    3.0880   -4.5126    0.0000 C   0  0  0  0  0  4  0  0  0  0  0  0
    4.2472   -5.1762    0.0000 C   0  0  0  0  0  4  0  0  0  0  0  0
    5.3974   -4.5126    0.0000 C   0  0  0  0  0  4  0  0  0  0  0  0
    0.7786   -2.4333    0.0000 C   0  0  0  0  0  4  0  0  0  0  0  0
    0.0000   -1.3538    0.0000 C   0  0  0  0  0  4  0  0  0  0  0  0
    0.5397   -0.1416    0.0000 C   0  0  0  0  0  4  0  0  0  0  0  0
    1.8670    0.0000    0.0000 C   0  0  0  0  0  4  0  0  0  0  0  0
  1  2  1  0  0  0  0 
  1  5  1  0  0  0  0 
  1  8  1  0  0  0  0 
  2  3  2  0  0  0  0 
  2  4  1  0  0  0  0 
  5  6  2  0  0  0  0 
  5  7  1  0  0  0  0 
  8  9  1  0  0  0  0 
  8 16  2  0  0  0  0 
  9 10  1  0  0  0  0 
  9 13  2  0  0  0  0 
 10 11  1  0  0  0  0 
 11 12  2  0  0  0  0 
 11 20  1  0  0  0  0 
 12 13  1  0  0  0  0 
 12 17  1  0  0  0  0 
 13 14  1  0  0  0  0 
 14 15  2  0  0  0  0 
 15 16  1  0  0  0  0 
 17 18  2  0  0  0  0 
 18 19  1  0  0  0  0 
 19 20  2  0  0  0  0 
M  END
> <CDK Fingerprint>
AZQQADAAICIFEAAAgAhBsA0EAAAAAUABAIAABhTAAggAAGAgEAAAAIgAAAYEA4JgAAQAAAaGAEAhAADABAEAwAUI0IAAAUEAAAAABIEg0AgACALAgICIQoAgAAQIgABgQEkAQCAAAAAAUKpgASUAAAYUKIDQAkEQqA4EAAISAA==

> <ActivityOutcome_CPDBAS_Rat>
active

> <TD50_Rat_mmol>
0.0716

$$$$

  CDK     0721101958

 18 18  0  0  0  0  0  0  0  0999 V2000
    4.6498   -3.4535    0.0000 O   0  0  0  0  0  2  0  0  0  0  0  0
    3.9878   -2.3050    0.0000 C   0  0  0  0  0  4  0  0  0  0  0  0
    2.6559   -2.3050    0.0000 C   0  0  0  0  0  4  0  0  0  0  0  0
    1.9939   -3.4535    0.0000 C   0  0  0  0  0  4  0  0  0  0  0  0
    0.6620   -3.4535    0.0000 C   0  0  0  0  0  4  0  0  0  0  0  0
    0.0000   -2.3050    0.0000 C   0  0  0  0  0  4  0  0  0  0  0  0
    0.6620   -1.1485    0.0000 C   0  0  0  0  0  4  0  0  0  0  0  0
    1.9939   -1.1485    0.0000 C   0  0  0  0  0  4  0  0  0  0  0  0
    2.6559   -4.6020    0.0000 C   0  0  0  0  0  4  0  0  0  0  0  0
    1.9939   -5.7585    0.0000 O   0  0  0  0  0  2  0  0  0  0  0  0
    3.9878   -4.6020    0.0000 O   0  0  0  0  0  2  0  0  0  0  0  0
    4.6498   -5.7585    0.0000 C   0  0  0  0  0  4  0  0  0  0  0  0
    5.9818   -5.7585    0.0000 C   0  0  0  0  0  4  0  0  0  0  0  0
    6.6438   -6.9069    0.0000 C   0  0  0  0  0  4  0  0  0  0  0  0
    4.6498   -1.1485    0.0000 O   0  0  0  0  0  2  0  0  0  0  0  0
    5.9818   -1.1485    0.0000 C   0  0  0  0  0  4  0  0  0  0  0  0
    6.6438    0.0000    0.0000 C   0  0  0  0  0  4  0  0  0  0  0  0
    7.9757    0.0000    0.0000 C   0  0  0  0  0  4  0  0  0  0  0  0
  1  2  2  0  0  0  0 
  2  3  1  0  0  0  0 
  2 15  1  0  0  0  0 
  3  4  2  0  0  0  0 
  3  8  1  0  0  0  0 
  4  5  1  0  0  0  0 
  4  9  1  0  0  0  0 
  5  6  2  0  0  0  0 
  6  7  1  0  0  0  0 
  7  8  2  0  0  0  0 
  9 10  2  0  0  0  0 
  9 11  1  0  0  0  0 
 11 12  1  0  0  0  0 
 12 13  1  0  0  0  0 
 13 14  2  0  0  0  0 
 15 16  1  0  0  0  0 
 16 17  1  0  0  0  0 
 17 18  2  0  0  0  0 
M  END
> <CDK Fingerprint>
AkAIAAAAAABEAoACAAACAAABABCAAAAAgBAAAIAAAAAQAABoAIAABAAACAAAAABAIAIAAAAQkCBAAAIQAAAAAAAMAAABAAAAAAAAAAIAAAAAAgAAAACAAACAEAAAKICAIABAQEAgBAAAAAACQQgECAGAEASAUAhACAEQYAAAAAA=

> <ActivityOutcome_CPDBAS_Rat>
inactive

$$$$

  CDK     0721101958

  9  8  0  0  0  0  0  0  0  0999 V2000
    2.6588    0.0000    0.0000 C   0  0  0  0  0  4  0  0  0  0  0  0
    1.9976   -1.1548    0.0000 C   0  0  0  0  0  4  0  0  0  0  0  0
    2.6588   -2.3049    0.0000 C   0  0  0  0  0  4  0  0  0  0  0  0
    1.9976   -3.4597    0.0000 N   0  0  0  0  0  3  0  0  0  0  0  0
    2.6588   -4.6098    0.0000 C   0  0  0  0  0  4  0  0  0  0  0  0
    3.9905   -4.6098    0.0000 C   0  0  0  0  0  4  0  0  0  0  0  0
    4.6563   -3.4597    0.0000 C   0  0  0  0  0  4  0  0  0  0  0  0
    0.6659   -3.4597    0.0000 N   0  0  0  0  0  3  0  0  0  0  0  0
    0.0000   -2.3049    0.0000 O   0  0  0  0  0  2  0  0  0  0  0  0
  1  2  2  0  0  0  0 
  2  3  1  0  0  0  0 
  3  4  1  0  0  0  0 
  4  5  1  0  0  0  0 
  4  8  1  0  0  0  0 
  5  6  1  0  0  0  0 
  6  7  2  0  0  0  0 
  8  9  2  0  0  0  0 
M  END
> <CDK Fingerprint>
QBAAAAAAAAIAAAAAAIAAAAAAAAAAAAAAAAIAAAAABAMAAGAAAAAAAAAAAAAAAAAgAAEAAAAQAAAAAACAAAAAAAAAAAAAAAAAAAAAAAAAgAAAAAAAAAAAAAAIAAAAAAAAAAQgAAEAAAAAAAAABAAAAAAIAAAAAAAAAAAAAAMAAA==

> <ActivityOutcome_CPDBAS_Rat>
active

> <TD50_Rat_mmol>
0.269

$$$$

  CDK     0721101958

 16 17  0  0  0  0  0  0  0  0999 V2000
    8.3241   -0.4661    0.0000 N   0  0  0  0  0  3  0  0  0  0  0  0
    7.6582   -1.6149    0.0000 C   0  0  0  0  0  4  0  0  0  0  0  0
    8.3241   -2.7636    0.0000 N   0  0  0  0  0  3  0  0  0  0  0  0
    7.6582   -3.9207    0.0000 C   0  0  0  0  0  4  0  0  0  0  0  0
    6.3263   -3.9207    0.0000 N   0  0  0  0  0  3  0  0  0  0  0  0
    5.6687   -2.7636    0.0000 C   0  0  0  0  0  4  0  0  0  0  0  0
    6.3263   -1.6149    0.0000 N   0  0  0  0  0  3  0  0  0  0  0  0
    4.3369   -2.7636    0.0000 C   0  0  0  0  0  4  0  0  0  0  0  0
    3.5544   -3.8457    0.0000 C   0  0  0  0  0  4  0  0  0  0  0  0
    2.2891   -3.4295    0.0000 C   0  0  0  0  0  4  0  0  0  0  0  0
    2.2891   -2.1060    0.0000 C   0  0  0  0  0  4  0  0  0  0  0  0
    3.5544   -1.6898    0.0000 O   0  0  0  0  0  2  0  0  0  0  0  0
    1.2153   -1.3235    0.0000 N   0  0  0  0  0  4  0  0  0  0  0  0
    1.3568    0.0000    0.0000 O   0  0  0  0  0  1  0  0  0  0  0  0
    0.0000   -1.8646    0.0000 O   0  0  0  0  0  2  0  0  0  0  0  0
    8.3241   -5.0694    0.0000 N   0  0  0  0  0  3  0  0  0  0  0  0
  1  2  1  0  0  0  0 
  2  3  2  0  0  0  0 
  2  7  1  0  0  0  0 
  3  4  1  0  0  0  0 
  4  5  2  0  0  0  0 
  4 16  1  0  0  0  0 
  5  6  1  0  0  0  0 
  6  7  2  0  0  0  0 
  6  8  1  0  0  0  0 
  8  9  2  0  0  0  0 
  8 12  1  0  0  0  0 
  9 10  1  0  0  0  0 
 10 11  2  0  0  0  0 
 11 12  1  0  0  0  0 
 11 13  1  0  0  0  0 
 13 14  1  0  0  0  0 
 13 15  2  0  0  0  0 
M  CHG  1  13   1
M  CHG  1  14  -1
M  END
> <CDK Fingerprint>
IAACOIJDpSBAEAgAkJAAAEogoACAEMEQAIBBAAQABgAAgGAABQIBAJCAAAAhAAAgAAADEkAAAkAAAAAABIBAAAAAARQEgAAAUAAAQAyIABIAAgAYFQQI5IAAgCAAgAQgAFQAVCAlNCgAIgBQlIoACACAAgOBGAAAEAAICgIAIw==

> <ActivityOutcome_CPDBAS_Rat>
active

> <TD50_Rat_mmol>
0.0077

$$$$

  CDK     0721101958

  9  9  0  0  0  0  0  0  0  0999 V2000
    0.0000   -2.6589    0.0000 N   0  0  0  0  0  3  0  0  0  0  0  0
    1.1520   -1.9953    0.0000 C   0  0  0  0  0  4  0  0  0  0  0  0
    1.1520   -0.6636    0.0000 C   0  0  0  0  0  4  0  0  0  0  0  0
    2.3041    0.0000    0.0000 C   0  0  0  0  0  4  0  0  0  0  0  0
    3.4561   -0.6636    0.0000 C   0  0  0  0  0  4  0  0  0  0  0  0
    3.4561   -1.9953    0.0000 C   0  0  0  0  0  4  0  0  0  0  0  0
    2.3041   -2.6589    0.0000 C   0  0  0  0  0  4  0  0  0  0  0  0
    4.6082   -2.6589    0.0000 N   0  0  0  0  0  3  0  0  0  0  0  0
    0.0000    0.0000    0.0000 C   0  0  0  0  0  4  0  0  0  0  0  0
  1  2  1  0  0  0  0 
  2  3  2  0  0  0  0 
  2  7  1  0  0  0  0 
  3  4  1  0  0  0  0 
  3  9  1  0  0  0  0 
  4  5  2  0  0  0  0 
  5  6  1  0  0  0  0 
  6  7  2  0  0  0  0 
  6  8  1  0  0  0  0 
M  END
> <CDK Fingerprint>
IgAAAAAAAAQAAAAAAAAAQQAAAAAABAACAAAAYAAAAAAAAAAAAAAAAGAAAAAAAAAAQAAAAAAAAAAABAAAAAAAAAAAAAAAAAAAAAAAAAAAAAAAgAAAAACAACAAAABAIAAAAAAAAkAAAAAAAAAAgAAAEAAAAAAAAhAA

> <ActivityOutcome_CPDBAS_Rat>
active

> <TD50_Rat_mmol>
0.0202

$$$$

  CDK     0721101958

 20 22  0  0  0  0  0  0  0  0999 V2000
    7.3361   -1.5610    0.0000 C   0  0  0  0  0  4  0  0  0  0  0  0
    6.3979   -2.4993    0.0000 N   0  0  0  0  0  3  0  0  0  0  0  0
    5.1442   -1.9978    0.0000 C   0  0  0  0  0  4  0  0  0  0  0  0
    3.9956   -2.6611    0.0000 C   0  0  0  0  0  4  0  0  0  0  0  0
    2.8390   -1.9978    0.0000 C   0  0  0  0  0  4  0  0  0  0  0  0
    2.8390   -0.6632    0.0000 C   0  0  0  0  0  4  0  0  0  0  0  0
    3.9956    0.0000    0.0000 C   0  0  0  0  0  4  0  0  0  0  0  0
    5.1442   -0.6632    0.0000 C   0  0  0  0  0  4  0  0  0  0  0  0
    1.6905    0.0000    0.0000 Cl  0  0  0  0  0  1  0  0  0  0  0  0
    3.7772   -3.9956    0.0000 C   0  0  0  0  0  4  0  0  0  0  0  0
    4.7155   -4.9339    0.0000 N   0  0  0  0  0  3  0  0  0  0  0  0
    6.0258   -4.8530    0.0000 C   0  0  0  0  0  4  0  0  0  0  0  0
    6.7699   -3.7530    0.0000 C   0  0  0  0  0  4  0  0  0  0  0  0
    8.0883   -3.9552    0.0000 O   0  0  0  0  0  2  0  0  0  0  0  0
    2.5074   -4.3839    0.0000 C   0  0  0  0  0  4  0  0  0  0  0  0
    2.2243   -5.6618    0.0000 C   0  0  0  0  0  4  0  0  0  0  0  0
    0.9382   -6.0743    0.0000 C   0  0  0  0  0  4  0  0  0  0  0  0
    0.0000   -5.1361    0.0000 C   0  0  0  0  0  4  0  0  0  0  0  0
    0.2750   -3.8581    0.0000 C   0  0  0  0  0  4  0  0  0  0  0  0
    1.5691   -3.4456    0.0000 C   0  0  0  0  0  4  0  0  0  0  0  0
  1  2  1  0  0  0  0 
  2  3  1  0  0  0  0 
  2 13  1  0  0  0  0 
  3  4  2  0  0  0  0 
  3  8  1  0  0  0  0 
  4  5  1  0  0  0  0 
  4 10  1  0  0  0  0 
  5  6  2  0  0  0  0 
  6  7  1  0  0  0  0 
  6  9  1  0  0  0  0 
  7  8  2  0  0  0  0 
 10 11  2  0  0  0  0 
 10 15  1  0  0  0  0 
 11 12  1  0  0  0  0 
 12 13  1  0  0  0  0 
 13 14  2  0  0  0  0 
 15 16  2  0  0  0  0 
 15 20  1  0  0  0  0 
 16 17  1  0  0  0  0 
 17 18  2  0  0  0  0 
 18 19  1  0  0  0  0 
 19 20  2  0  0  0  0 
M  END
> <CDK Fingerprint>
AQAACAAgQjAjAgCAAIsIAJABBCAAAENIEQEAAAUUwBIIoAngAAABCAAAAAB2QwCgYIAEAAACAgBAIRAByCQBAcAEWAAAAQEQAAAAIASAIrAIAgkCAAAACNGBAAgAAJAgYIBAAMAgBRCIgBB6QAAUAIEAFCDEUUBJIIIAAAACEgg=

> <ActivityOutcome_CPDBAS_Rat>
inactive

$$$$

  CDK     0721101958

 19 19  0  0  0  0  0  0  0  0999 V2000
    4.8313   -4.1140    0.0000 S   0  0  0  0  0  2  0  0  0  0  0  0
    5.9808   -3.4571    0.0000 P   0  0  0  0  0  5  0  0  0  0  0  0
    5.3153   -2.2990    0.0000 O   0  0  0  0  0  2  0  0  0  0  0  0
    3.9930   -2.2990    0.0000 C   0  0  0  0  0  4  0  0  0  0  0  0
    3.3275   -3.4571    0.0000 N   0  0  0  0  0  3  0  0  0  0  0  0
    1.9965   -3.4571    0.0000 C   0  0  0  0  0  4  0  0  0  0  0  0
    1.3310   -2.2990    0.0000 N   0  0  0  0  0  3  0  0  0  0  0  0
    1.9965   -1.1495    0.0000 C   0  0  0  0  0  4  0  0  0  0  0  0
    3.3275   -1.1495    0.0000 C   0  0  0  0  0  4  0  0  0  0  0  0
    1.3310    0.0000    0.0000 C   0  0  0  0  0  4  0  0  0  0  0  0
    1.3310   -4.6066    0.0000 C   0  0  0  0  0  4  0  0  0  0  0  0
    1.9965   -5.7561    0.0000 C   0  0  0  0  0  4  0  0  0  0  0  0
    0.0000   -4.6066    0.0000 C   0  0  0  0  0  4  0  0  0  0  0  0
    7.1389   -2.7916    0.0000 O   0  0  0  0  0  2  0  0  0  0  0  0
    7.1389   -1.4606    0.0000 C   0  0  0  0  0  4  0  0  0  0  0  0
    8.2884   -0.7951    0.0000 C   0  0  0  0  0  4  0  0  0  0  0  0
    6.6463   -4.6066    0.0000 O   0  0  0  0  0  2  0  0  0  0  0  0
    7.9773   -4.6066    0.0000 C   0  0  0  0  0  4  0  0  0  0  0  0
    8.6428   -3.4571    0.0000 C   0  0  0  0  0  4  0  0  0  0  0  0
  1  2  2  0  0  0  0 
  2  3  1  0  0  0  0 
  2 14  1  0  0  0  0 
  2 17  1  0  0  0  0 
  3  4  1  0  0  0  0 
  4  5  2  0  0  0  0 
  4  9  1  0  0  0  0 
  5  6  1  0  0  0  0 
  6  7  2  0  0  0  0 
  6 11  1  0  0  0  0 
  7  8  1  0  0  0  0 
  8  9  2  0  0  0  0 
  8 10  1  0  0  0  0 
 11 12  1  0  0  0  0 
 11 13  1  0  0  0  0 
 14 15  1  0  0  0  0 
 15 16  1  0  0  0  0 
 17 18  1  0  0  0  0 
 18 19  1  0  0  0  0 
M  END
> <CDK Fingerprint>
MAICKoIqAQTLVAoEMJIAAUUAgAAAARgEAQAAAAAIAAAIBXAQCASAgAABBAEggEAhAATgAQgCAcICgARAAgIAEQEAAAQABAAAQCEAAAQQgDAAEJAAAAAEoIUQAgAEiAAAAEQAACAEDEJIAAAgAAUAEBAAAAAIKDAAAgABAgAAAg==

> <ActivityOutcome_CPDBAS_Rat>
inactive

$$$$

  CDK     0721101958

 14 16  0  0  0  0  0  0  0  0999 V2000
    3.4545    0.0000    0.0000 O   0  0  0  0  0  2  0  0  0  0  0  0
    4.6083   -0.6633    0.0000 C   0  0  0  0  0  4  0  0  0  0  0  0
    4.6083   -1.9967    0.0000 C   0  0  0  0  0  4  0  0  0  0  0  0
    5.7552   -2.6600    0.0000 C   0  0  0  0  0  4  0  0  0  0  0  0
    6.9090   -1.9967    0.0000 C   0  0  0  0  0  4  0  0  0  0  0  0
    6.9090   -0.6633    0.0000 C   0  0  0  0  0  4  0  0  0  0  0  0
    5.7552    0.0000    0.0000 C   0  0  0  0  0  4  0  0  0  0  0  0
    3.4545   -2.6600    0.0000 O   0  0  0  0  0  2  0  0  0  0  0  0
    2.3007   -1.9967    0.0000 C   0  0  0  0  0  4  0  0  0  0  0  0
    1.1538   -2.6600    0.0000 C   0  0  0  0  0  4  0  0  0  0  0  0
    0.0000   -1.9967    0.0000 C   0  0  0  0  0  4  0  0  0  0  0  0
    0.0000   -0.6633    0.0000 C   0  0  0  0  0  4  0  0  0  0  0  0
    1.1538    0.0000    0.0000 C   0  0  0  0  0  4  0  0  0  0  0  0
    2.3007   -0.6633    0.0000 C   0  0  0  0  0  4  0  0  0  0  0  0
  1  2  1  0  0  0  0 
  1 14  1  0  0  0  0 
  2  3  2  0  0  0  0 
  2  7  1  0  0  0  0 
  3  4  1  0  0  0  0 
  3  8  1  0  0  0  0 
  4  5  2  0  0  0  0 
  5  6  1  0  0  0  0 
  6  7  2  0  0  0  0 
  8  9  1  0  0  0  0 
  9 10  2  0  0  0  0 
  9 14  1  0  0  0  0 
 10 11  1  0  0  0  0 
 11 12  2  0  0  0  0 
 12 13  1  0  0  0  0 
 13 14  2  0  0  0  0 
M  END
> <CDK Fingerprint>
AgAAAAAAAAAACoAAKIAAAEAAAAAAAAACYQAAAAQAAAAAAAAAAAgAACAAAAAAQAAAAAAAAAAABhQAAAAAAgAAAAYAAACABAABAAAAAAAAAAIAAAAAACAAAAEAICAgABAAAgAAAGAAAAAAgAAACAAAAAAAIAAA

> <ActivityOutcome_CPDBAS_Rat>
inactive

$$$$

  CDK     0721101958

 14 16  0  0  0  0  0  0  0  0999 V2000
    7.6035   -3.0490    0.0000 N   0  0  0  0  0  3  0  0  0  0  0  0
    6.3869   -2.5091    0.0000 C   0  0  0  0  0  4  0  0  0  0  0  0
    6.2500   -1.1861    0.0000 C   0  0  0  0  0  4  0  0  0  0  0  0
    5.0335   -0.6463    0.0000 C   0  0  0  0  0  4  0  0  0  0  0  0
    3.9614   -1.4294    0.0000 C   0  0  0  0  0  4  0  0  0  0  0  0
    2.6612   -1.1557    0.0000 C   0  0  0  0  0  4  0  0  0  0  0  0
    1.9921   -2.3038    0.0000 C   0  0  0  0  0  4  0  0  0  0  0  0
    0.6615   -2.3038    0.0000 C   0  0  0  0  0  4  0  0  0  0  0  0
    0.0000   -1.1557    0.0000 C   0  0  0  0  0  4  0  0  0  0  0  0
    0.6615    0.0000    0.0000 C   0  0  0  0  0  4  0  0  0  0  0  0
    1.9921    0.0000    0.0000 C   0  0  0  0  0  4  0  0  0  0  0  0
    2.8817   -3.2923    0.0000 O   0  0  0  0  0  2  0  0  0  0  0  0
    4.0983   -2.7525    0.0000 C   0  0  0  0  0  4  0  0  0  0  0  0
    5.3148   -3.2923    0.0000 C   0  0  0  0  0  4  0  0  0  0  0  0
  1  2  1  0  0  0  0 
  2  3  2  0  0  0  0 
  2 14  1  0  0  0  0 
  3  4  1  0  0  0  0 
  4  5  2  0  0  0  0 
  5  6  1  0  0  0  0 
  5 13  1  0  0  0  0 
  6  7  2  0  0  0  0 
  6 11  1  0  0  0  0 
  7  8  1  0  0  0  0 
  7 12  1  0  0  0  0 
  8  9  2  0  0  0  0 
  9 10  1  0  0  0  0 
 10 11  2  0  0  0  0 
 12 13  1  0  0  0  0 
 13 14  2  0  0  0  0 
M  END
> <CDK Fingerprint>
QQQAIAAgIAAAACAAgAEIAqAAAAAAQAQAAACABAACAAAAYAACAAAAAAAAAQIBAAAASAAAAAAAQAAAAACAAAEAAAAAAAKAAAAAAAAAAAAAAAACAAAABAEAQAAAAAAAACAAQACQIAgAAAACAgAAAgAAAAAAgAAAAEAAAABAAhQB

> <ActivityOutcome_CPDBAS_Rat>
active

> <TD50_Rat_mmol>
0.0135

$$$$

  CDK     0721101958

  6  5  0  0  0  0  0  0  0  0999 V2000
    2.6616    0.0000    0.0000 Br  0  0  0  0  0  1  0  0  0  0  0  0
    1.9952   -1.1492    0.0000 C   0  0  0  0  0  4  0  0  0  0  0  0
    2.6616   -2.3025    0.0000 C   0  0  0  0  0  4  0  0  0  0  0  0
    3.9905   -2.3025    0.0000 Cl  0  0  0  0  0  1  0  0  0  0  0  0
    0.6664   -1.1492    0.0000 C   0  0  0  0  0  4  0  0  0  0  0  0
    0.0000   -2.3025    0.0000 Br  0  0  0  0  0  1  0  0  0  0  0  0
  1  2  1  0  0  0  0 
  2  3  1  0  0  0  0 
  2  5  1  0  0  0  0 
  3  4  1  0  0  0  0 
  5  6  1  0  0  0  0 
M  END
> <CDK Fingerprint>
AIAAAgAAAAAAAACAAAAAwAAAAAAAAAAAAAAAACAAAAACAAAAAAAAAEAAAAEAAAAAAACAAAAAAAABAAAAAAAAAAAAAAAAAAAAAAAAAAAAAQAAAAAAAAAAAAAAAAAAAAAAAAAAAAAAAAAAAAAA

> <ActivityOutcome_CPDBAS_Rat>
active

> <TD50_Rat_mmol>
0.0011

$$$$

  CDK     0721101958

 12 11  0  0  0  0  0  0  0  0999 V2000
    1.3263   -2.2908    0.0000 C   0  0  0  0  0  4  0  0  0  0  0  0
    2.0015   -3.4242    0.0000 C   0  0  0  0  0  4  0  0  0  0  0  0
    1.3263   -4.6138    0.0000 C   0  0  0  0  0  4  0  0  0  0  0  0
    2.0015   -5.7472    0.0000 C   0  0  0  0  0  4  0  0  0  0  0  0
    1.3263   -6.9047    0.0000 C   0  0  0  0  0  4  0  0  0  0  0  0
    2.0015   -1.1334    0.0000 C   0  0  0  0  0  4  0  0  0  0  0  0
    3.3277   -3.4242    0.0000 O   0  0  0  0  0  2  0  0  0  0  0  0
    0.0000   -4.6138    0.0000 O   0  0  0  0  0  2  0  0  0  0  0  0
    3.3277   -5.7472    0.0000 O   0  0  0  0  0  2  0  0  0  0  0  0
    2.0015   -8.0380    0.0000 Br  0  0  0  0  0  1  0  0  0  0  0  0
    1.3263    0.0000    0.0000 Br  0  0  0  0  0  1  0  0  0  0  0  0
    0.0000   -2.2908    0.0000 O   0  0  0  0  0  2  0  0  0  0  0  0
  1  2  1  0  0  0  0 
  1  6  1  0  0  0  0 
  1 12  1  1  0  0  0 
  2  3  1  0  0  0  0 
  2  7  1  1  0  0  0 
  3  4  1  0  0  0  0 
  3  8  1  6  0  0  0 
  4  5  1  0  0  0  0 
  4  9  1  6  0  0  0 
  5 10  1  0  0  0  0 
  6 11  1  0  0  0  0 
M  END
> <CDK Fingerprint>
AgAAAAAAAAAAACAAAkAAAAAAAACAAAEA4AAAAAAAAAAAAAAAGCAAIgAAAAAAAAAAAEAAAAAAAAAAAAAAAAAAAAABAAAAAAUAAAAAAAAAgBAAAAAAAAEQMAAAAAAAAAAAAAAQAAAAAAAAAAAwAAAAAAAAAAAA

> <ActivityOutcome_CPDBAS_Rat>
active

> <TD50_Rat_mmol>
0.0272

$$$$

  CDK     0721101958

  4  3  0  0  0  0  0  0  0  0999 V2000
    0.0000    0.0000    0.0000 Br  0  0  0  0  0  1  0  0  0  0  0  0
    1.1513   -0.6638    0.0000 C   0  0  0  0  0  4  0  0  0  0  0  0
    2.3061    0.0000    0.0000 C   0  0  0  0  0  4  0  0  0  0  0  0
    3.4575   -0.6638    0.0000 Br  0  0  0  0  0  1  0  0  0  0  0  0
  1  2  1  0  0  0  0 
  2  3  1  0  0  0  0 
  3  4  1  0  0  0  0 
M  END
> <CDK Fingerprint>
AIAAAAAAAAAAAACAAAAAwAAAAAAAAAAAAAAAACAAAAAAAAAAAAAAAAAAAAAAAAAAAAAAAAAAAAABAAAAAAAAAAAAAAAAAAAAAAAAAAAAAAAAAAAAAAAAAAAAAAAAAAAAAAAAAAAAAAAAAAAA

> <ActivityOutcome_CPDBAS_Rat>
active

> <TD50_Rat_mmol>
0.00809

$$$$

  CDK     0721101958

 12 11  0  0  0  0  0  0  0  0999 V2000
    3.9893   -2.3026    0.0000 O   0  0  0  0  0  2  0  0  0  0  0  0
    2.6595   -2.3026    0.0000 C   0  0  0  0  0  4  0  0  0  0  0  0
    1.9918   -3.4539    0.0000 C   0  0  0  0  0  4  0  0  0  0  0  0
    2.6595   -4.6053    0.0000 C   0  0  0  0  0  4  0  0  0  0  0  0
    3.9893   -4.6053    0.0000 C   0  0  0  0  0  4  0  0  0  0  0  0
    4.6513   -3.4539    0.0000 Br  0  0  0  0  0  1  0  0  0  0  0  0
    1.9918   -5.7566    0.0000 O   0  0  0  0  0  2  0  0  0  0  0  0
    0.6620   -3.4539    0.0000 O   0  0  0  0  0  2  0  0  0  0  0  0
    1.9918   -1.1513    0.0000 C   0  0  0  0  0  4  0  0  0  0  0  0
    0.6620   -1.1513    0.0000 C   0  0  0  0  0  4  0  0  0  0  0  0
    0.0000   -2.3026    0.0000 Br  0  0  0  0  0  1  0  0  0  0  0  0
    2.6595    0.0000    0.0000 O   0  0  0  0  0  2  0  0  0  0  0  0
  2  1  1  1  0  0  0 
  2  3  1  0  0  0  0 
  2  9  1  0  0  0  0 
  3  4  1  0  0  0  0 
  3  8  1  1  0  0  0 
  4  5  1  0  0  0  0 
  4  7  1  6  0  0  0 
  5  6  1  0  0  0  0 
  9 10  1  0  0  0  0 
  9 12  1  6  0  0  0 
 10 11  1  0  0  0  0 
M  END
> <CDK Fingerprint>
AgAAAAAAAAAAACAAAkAAAAAAAACAAAEA4AAAAAAAAAAAAAAAGCAAIgAAAAAAAAAAAEAAAAAAAAAAAAAAAAAAAAABAAAAAAUAAAAAAAAAgBAAAAAAAAEQMAAAAAAAAAAAAAAQAAAAAAAAAAAwAAAAAAAAAAAA

> <ActivityOutcome_CPDBAS_Rat>
active

> <TD50_Rat_mmol>
0.0896

$$$$

  CDK     0721101958

 12 13  0  0  0  0  0  0  0  0999 V2000
    2.3036   -1.3283    0.0000 C   0  0  0  0  0  4  0  0  0  0  0  0
    1.1488   -1.9925    0.0000 C   0  0  0  0  0  4  0  0  0  0  0  0
    1.1488   -3.3267    0.0000 C   0  0  0  0  0  4  0  0  0  0  0  0
    2.3036   -3.9909    0.0000 C   0  0  0  0  0  4  0  0  0  0  0  0
    3.4524   -3.3267    0.0000 C   0  0  0  0  0  4  0  0  0  0  0  0
    3.4524   -1.9925    0.0000 C   0  0  0  0  0  4  0  0  0  0  0  0
    4.6072   -3.9909    0.0000 N   0  0  0  0  0  3  0  0  0  0  0  0
    4.6072   -5.3192    0.0000 C   0  0  0  0  0  4  0  0  0  0  0  0
    3.4524   -5.9834    0.0000 C   0  0  0  0  0  4  0  0  0  0  0  0
    2.3036   -5.3192    0.0000 C   0  0  0  0  0  4  0  0  0  0  0  0
    0.0000   -3.9909    0.0000 Br  0  0  0  0  0  1  0  0  0  0  0  0
    2.3036    0.0000    0.0000 Br  0  0  0  0  0  1  0  0  0  0  0  0
  1  2  2  0  0  0  0 
  1  6  1  0  0  0  0 
  1 12  1  0  0  0  0 
  2  3  1  0  0  0  0 
  3  4  2  0  0  0  0 
  3 11  1  0  0  0  0 
  4  5  1  0  0  0  0 
  4 10  1  0  0  0  0 
  5  6  2  0  0  0  0 
  5  7  1  0  0  0  0 
  7  8  2  0  0  0  0 
  8  9  1  0  0  0  0 
  9 10  2  0  0  0  0 
M  END
> <CDK Fingerprint>
AgGUAgAAgAAMAgAAAAAAAAAAAAACAAAAAAAACAAAAADgAABgIAAAAAAAAAAIAAAAAAAAAARAAAAAAJAAAAEAAAAAAIAAAAAACAEBBAEAgAAAgAAAAAAAJAAAAQAAIEUAAQAgCIsAAAACAQAAAAAAUACAAAACQAAAAAAAAQA=

> <ActivityOutcome_CPDBAS_Rat>
inactive

$$$$

  CDK     0721101958

 14 13  0  0  0  0  0  0  0  0999 V2000
    3.9904   -3.4520    0.0000 O   0  0  0  0  0  2  0  0  0  0  0  0
    2.6563   -3.4520    0.0000 C   0  0  0  0  0  4  0  0  0  0  0  0
    1.9922   -4.6066    0.0000 N   0  0  0  0  0  3  0  0  0  0  0  0
    2.6563   -5.7553    0.0000 C   0  0  0  0  0  4  0  0  0  0  0  0
    3.9904   -5.7553    0.0000 C   0  0  0  0  0  4  0  0  0  0  0  0
    4.6545   -4.6066    0.0000 C   0  0  0  0  0  4  0  0  0  0  0  0
    5.9826   -4.6066    0.0000 C   0  0  0  0  0  4  0  0  0  0  0  0
    0.6641   -4.6066    0.0000 N   0  0  0  0  0  3  0  0  0  0  0  0
    0.0000   -3.4520    0.0000 O   0  0  0  0  0  2  0  0  0  0  0  0
    1.9922   -2.3033    0.0000 N   0  0  0  0  0  3  0  0  0  0  0  0
    2.6563   -1.1487    0.0000 C   0  0  0  0  0  4  0  0  0  0  0  0
    3.9904   -1.1487    0.0000 C   0  0  0  0  0  4  0  0  0  0  0  0
    4.6545    0.0000    0.0000 C   0  0  0  0  0  4  0  0  0  0  0  0
    5.9826    0.0000    0.0000 C   0  0  0  0  0  4  0  0  0  0  0  0
  1  2  2  0  0  0  0 
  2  3  1  0  0  0  0 
  2 10  1  0  0  0  0 
  3  4  1  0  0  0  0 
  3  8  1  0  0  0  0 
  4  5  1  0  0  0  0 
  5  6  1  0  0  0  0 
  6  7  1  0  0  0  0 
  8  9  2  0  0  0  0 
 10 11  1  0  0  0  0 
 11 12  1  0  0  0  0 
 12 13  1  0  0  0  0 
 13 14  1  0  0  0  0 
M  END
> <CDK Fingerprint>
CAAAAAIQAEgAAYAAAQAAAAAQAAAAAAAAAAAABAUAIGAAAAKAgAAAAAAAgRAiAEEAAgAAAAAAAADAAAACgAAAAAEAAEEAAAAAAAAAgAAAQAAgAEAAAAAAACAAAAAAAGRgAAAACAAAAAAAEAAAIABAAABAAAAAABAACAMAAA==

> <ActivityOutcome_CPDBAS_Rat>
active

> <TD50_Rat_mmol>
0.0213

$$$$

  CDK     0721101958

  5  4  0  0  0  0  0  0  0  0999 V2000
    0.0000   -1.3300    0.0000 F   0  0  0  0  0  1  0  0  0  0  0  0
    1.3300   -2.6600    0.0000 Cl  0  0  0  0  0  1  0  0  0  0  0  0
    1.3300   -1.3300    0.0000 C   0  0  0  0  0  4  0  0  0  0  0  0
    2.6600   -1.3300    0.0000 C   0  0  0  0  0  4  0  0  0  0  0  0
    1.3300    0.0000    0.0000 Cl  0  0  0  0  0  1  0  0  0  0  0  0
  1  3  1  0  0  0  0 
  2  3  1  0  0  0  0 
  3  4  1  0  0  0  0 
  3  5  1  0  0  0  0 
M  END
> <CDK Fingerprint>
IAAAwAAAAAAgAAAAAAAAACAAAAAGAAAAAAAAAAAAAAEAAAAAAAAAAAAAAAAAAAAAAAAAAAAAAAAAAAAAAAAAAAAAAAAAAAAAAAAAAAAAAAAAAAAAAAAAAAAAAAAAAAAA

> <ActivityOutcome_CPDBAS_Rat>
active

> <TD50_Rat_mmol>
45

$$$$

  CDK     0721101958

 10 10  0  0  0  0  0  0  0  0999 V2000
    5.3182   -2.3028    0.0000 N   0  0  0  0  0  3  0  0  0  0  0  0
    3.9887   -2.3028    0.0000 C   0  0  0  0  0  4  0  0  0  0  0  0
    3.3239   -3.4568    0.0000 C   0  0  0  0  0  4  0  0  0  0  0  0
    1.9943   -3.4568    0.0000 C   0  0  0  0  0  4  0  0  0  0  0  0
    1.3296   -2.3028    0.0000 C   0  0  0  0  0  4  0  0  0  0  0  0
    1.9943   -1.1487    0.0000 C   0  0  0  0  0  4  0  0  0  0  0  0
    3.3239   -1.1487    0.0000 C   0  0  0  0  0  4  0  0  0  0  0  0
    3.9887    0.0000    0.0000 Cl  0  0  0  0  0  1  0  0  0  0  0  0
    0.0000   -2.3028    0.0000 N   0  0  0  0  0  3  0  0  0  0  0  0
    3.9887   -4.6056    0.0000 Cl  0  0  0  0  0  1  0  0  0  0  0  0
  1  2  1  0  0  0  0 
  2  3  2  0  0  0  0 
  2  7  1  0  0  0  0 
  3  4  1  0  0  0  0 
  3 10  1  0  0  0  0 
  4  5  2  0  0  0  0 
  5  6  1  0  0  0  0 
  5  9  1  0  0  0  0 
  6  7  2  0  0  0  0 
  7  8  1  0  0  0  0 
M  END
> <CDK Fingerprint>
CAAAAAAAACAAAEAAAAAAAAAAAAAAAEAQAAAAAAQAAgAAAOAAAAAAAAAAAAAAAAAgAAAAAAAAAEAAAAQAAAABAAAAAAAAAAAAAAAAAAAAAAAMAAAAAAAAAQEAAAAAAAAgAAAAgCAEAAAAAAIAAAAAAAAAAIAAAAAAAAAAAAIQAA==

> <ActivityOutcome_CPDBAS_Rat>
inactive

$$$$

  CDK     0721101958

  6  5  0  0  0  0  0  0  0  0999 V2000
    3.3250   -1.1509    0.0000 O   0  0  0  0  0  2  0  0  0  0  0  0
    1.9943   -1.1509    0.0000 C   0  0  0  0  0  4  0  0  0  0  0  0
    1.3307    0.0000    0.0000 O   0  0  0  0  0  2  0  0  0  0  0  0
    1.3307   -2.3053    0.0000 C   0  0  0  0  0  4  0  0  0  0  0  0
    1.9943   -3.4563    0.0000 Cl  0  0  0  0  0  1  0  0  0  0  0  0
    0.0000   -2.3053    0.0000 Cl  0  0  0  0  0  1  0  0  0  0  0  0
  1  2  1  0  0  0  0 
  2  3  2  0  0  0  0 
  2  4  1  0  0  0  0 
  4  5  1  0  0  0  0 
  4  6  1  0  0  0  0 
M  END
> <CDK Fingerprint>
AgAAAAAAAAAAAAAAAAAAAAACAAAAAAAA4AAAAAAAAAAAAAAAACAAAAAGAAAAAAAAAAAAAAEAAAAIAAAAAAAAAAAAAAAAAAAAAAAAAAAAABAAAAAAAAAAQAAAAAAAAAAAAAAAAAAAAAAAAFAAAAAAAAAAAAAA

> <ActivityOutcome_CPDBAS_Rat>
active

> <TD50_Rat_mmol>
1.25

$$$$

  CDK     0721101958

  4  3  0  0  0  0  0  0  0  0999 V2000
    3.9900    0.0000    0.0000 Cl  0  0  0  0  0  1  0  0  0  0  0  0
    2.6613    0.0000    0.0000 C   0  0  0  0  0  4  0  0  0  0  0  0
    1.3287    0.0000    0.0000 C   0  0  0  0  0  4  0  0  0  0  0  0
    0.0000    0.0000    0.0000 Cl  0  0  0  0  0  1  0  0  0  0  0  0
  1  2  1  0  0  0  0 
  2  3  3  0  0  0  0 
  3  4  1  0  0  0  0 
M  END
> <CDK Fingerprint>
AMAAAAAAAAAAEAAAAAAAAAEAAAAAAAAAAAAAAAABAAAAAAAAAAAAAAAAAAAAAAAAAAAAAAAAAAAAAAAAAAAAAAAAAAAAAAAAAAAQAAAAAAAAAAAAAAAAAAAAAAAAAA==

> <ActivityOutcome_CPDBAS_Rat>
active

> <TD50_Rat_mmol>
0.0377

$$$$

  CDK     0721101958

  8  8  0  0  0  0  0  0  0  0999 V2000
    0.0000   -2.3027    0.0000 Cl  0  0  0  0  0  1  0  0  0  0  0  0
    1.3289   -2.3027    0.0000 C   0  0  0  0  0  4  0  0  0  0  0  0
    1.9954   -1.1533    0.0000 C   0  0  0  0  0  4  0  0  0  0  0  0
    3.3243   -1.1533    0.0000 C   0  0  0  0  0  4  0  0  0  0  0  0
    3.9907   -2.3027    0.0000 C   0  0  0  0  0  4  0  0  0  0  0  0
    3.3243   -3.4560    0.0000 C   0  0  0  0  0  4  0  0  0  0  0  0
    1.9954   -3.4560    0.0000 C   0  0  0  0  0  4  0  0  0  0  0  0
    1.3289    0.0000    0.0000 Cl  0  0  0  0  0  1  0  0  0  0  0  0
  1  2  1  0  0  0  0 
  2  3  2  0  0  0  0 
  2  7  1  0  0  0  0 
  3  4  1  0  0  0  0 
  3  8  1  0  0  0  0 
  4  5  2  0  0  0  0 
  5  6  1  0  0  0  0 
  6  7  2  0  0  0  0 
M  END
> <CDK Fingerprint>
CAAAAAAAAAAAAAAAAAAAAAAAAAAAAAAAwAAAAAAAAAAAAAAAACAAAAAAAAAAQEAAAAAAAAEAAAAAAAAAAAAAAAAAAAAAAAAAAAAAAAABAQAAAAAAACAAAACAIAQAAAAAAgAAAAAAAAAAgAAAAAAAAAAAAAAA

> <ActivityOutcome_CPDBAS_Rat>
inactive

$$$$

  CDK     0721101958

  8  8  0  0  0  0  0  0  0  0999 V2000
    0.0000   -1.1545    0.0000 Cl  0  0  0  0  0  1  0  0  0  0  0  0
    1.3300   -1.1545    0.0000 C   0  0  0  0  0  4  0  0  0  0  0  0
    1.9950    0.0000    0.0000 C   0  0  0  0  0  4  0  0  0  0  0  0
    3.3250    0.0000    0.0000 C   0  0  0  0  0  4  0  0  0  0  0  0
    3.9900   -1.1545    0.0000 C   0  0  0  0  0  4  0  0  0  0  0  0
    3.3250   -2.3036    0.0000 C   0  0  0  0  0  4  0  0  0  0  0  0
    1.9950   -2.3036    0.0000 C   0  0  0  0  0  4  0  0  0  0  0  0
    5.3201   -1.1545    0.0000 Cl  0  0  0  0  0  1  0  0  0  0  0  0
  1  2  1  0  0  0  0 
  2  3  2  0  0  0  0 
  2  7  1  0  0  0  0 
  3  4  1  0  0  0  0 
  4  5  2  0  0  0  0 
  5  6  1  0  0  0  0 
  5  8  1  0  0  0  0 
  6  7  2  0  0  0  0 
M  END
> <CDK Fingerprint>
AMAAAAAAAAAAAAAAAAAgAAAAAAAAAEAAAAAAAAABAAAAAAAAAAAAAAAAAAAAAAAAAAAAAAAAAQEAAAAAAAAgAAAAgCAEAAAAAEIAAAAAAAAAAIAAAAAAAAAAAAAAAA==

> <ActivityOutcome_CPDBAS_Rat>
active

> <TD50_Rat_mmol>
4.38

$$$$

  CDK     0721101958

 16 17  0  0  0  0  0  0  0  0999 V2000
    7.9825    0.0000    0.0000 Cl  0  0  0  0  0  1  0  0  0  0  0  0
    7.3211   -1.1550    0.0000 C   0  0  0  0  0  4  0  0  0  0  0  0
    7.9825   -2.3100    0.0000 C   0  0  0  0  0  4  0  0  0  0  0  0
    7.3211   -3.4557    0.0000 C   0  0  0  0  0  4  0  0  0  0  0  0
    5.9892   -3.4557    0.0000 C   0  0  0  0  0  4  0  0  0  0  0  0
    5.3185   -2.3100    0.0000 C   0  0  0  0  0  4  0  0  0  0  0  0
    5.9892   -1.1550    0.0000 C   0  0  0  0  0  4  0  0  0  0  0  0
    3.9959   -2.3100    0.0000 C   0  0  0  0  0  4  0  0  0  0  0  0
    3.3253   -3.4557    0.0000 C   0  0  0  0  0  4  0  0  0  0  0  0
    1.9933   -3.4557    0.0000 C   0  0  0  0  0  4  0  0  0  0  0  0
    1.3320   -2.3100    0.0000 C   0  0  0  0  0  4  0  0  0  0  0  0
    1.9933   -1.1550    0.0000 C   0  0  0  0  0  4  0  0  0  0  0  0
    3.3253   -1.1550    0.0000 C   0  0  0  0  0  4  0  0  0  0  0  0
    0.0000   -2.3100    0.0000 N   0  0  0  0  0  3  0  0  0  0  0  0
    1.3320   -4.6106    0.0000 Cl  0  0  0  0  0  1  0  0  0  0  0  0
    9.3144   -2.3100    0.0000 N   0  0  0  0  0  3  0  0  0  0  0  0
  1  2  1  0  0  0  0 
  2  3  2  0  0  0  0 
  2  7  1  0  0  0  0 
  3  4  1  0  0  0  0 
  3 16  1  0  0  0  0 
  4  5  2  0  0  0  0 
  5  6  1  0  0  0  0 
  6  7  2  0  0  0  0 
  6  8  1  0  0  0  0 
  8  9  2  0  0  0  0 
  8 13  1  0  0  0  0 
  9 10  1  0  0  0  0 
 10 11  2  0  0  0  0 
 10 15  1  0  0  0  0 
 11 12  1  0  0  0  0 
 11 14  1  0  0  0  0 
 12 13  2  0  0  0  0 
M  END
> <CDK Fingerprint>
AQAAAAEAgAAgBBBAAAAAAAAAAAAAEABBQAAAAAIEAAMAAADgAAAAAAAAAAAAAAAAIEAAAAAABABAAAAEAAAAAQQEAAAQAAAAAAAAAAAAAEAAAgAAAAAAAAWBAAAAAIAAIAAAAMAgBAAAAEACQAEAAAAAAAiAgAAAEAgIAAACEAA=

> <ActivityOutcome_CPDBAS_Rat>
active

> <TD50_Rat_mmol>
0.111

$$$$

  CDK     0721101958

 16 18  0  0  0  0  0  0  0  0999 V2000
    9.2093   -2.6615    0.0000 Cl  0  0  0  0  0  1  0  0  0  0  0  0
    8.0581   -1.9984    0.0000 C   0  0  0  0  0  4  0  0  0  0  0  0
    6.9070   -2.6615    0.0000 C   0  0  0  0  0  4  0  0  0  0  0  0
    5.7558   -1.9984    0.0000 C   0  0  0  0  0  4  0  0  0  0  0  0
    5.7558   -0.6631    0.0000 C   0  0  0  0  0  4  0  0  0  0  0  0
    6.9070    0.0000    0.0000 C   0  0  0  0  0  4  0  0  0  0  0  0
    8.0581   -0.6631    0.0000 C   0  0  0  0  0  4  0  0  0  0  0  0
    4.6047    0.0000    0.0000 O   0  0  0  0  0  2  0  0  0  0  0  0
    3.4535   -0.6631    0.0000 C   0  0  0  0  0  4  0  0  0  0  0  0
    3.4535   -1.9984    0.0000 C   0  0  0  0  0  4  0  0  0  0  0  0
    2.3023   -2.6615    0.0000 C   0  0  0  0  0  4  0  0  0  0  0  0
    1.1512   -1.9984    0.0000 C   0  0  0  0  0  4  0  0  0  0  0  0
    1.1512   -0.6631    0.0000 C   0  0  0  0  0  4  0  0  0  0  0  0
    2.3023    0.0000    0.0000 C   0  0  0  0  0  4  0  0  0  0  0  0
    0.0000    0.0000    0.0000 Cl  0  0  0  0  0  1  0  0  0  0  0  0
    4.6047   -2.6615    0.0000 O   0  0  0  0  0  2  0  0  0  0  0  0
  1  2  1  0  0  0  0 
  2  3  2  0  0  0  0 
  2  7  1  0  0  0  0 
  3  4  1  0  0  0  0 
  4  5  2  0  0  0  0 
  4 16  1  0  0  0  0 
  5  6  1  0  0  0  0 
  5  8  1  0  0  0  0 
  6  7  2  0  0  0  0 
  8  9  1  0  0  0  0 
  9 10  2  0  0  0  0 
  9 14  1  0  0  0  0 
 10 11  1  0  0  0  0 
 10 16  1  0  0  0  0 
 11 12  2  0  0  0  0 
 12 13  1  0  0  0  0 
 13 14  2  0  0  0  0 
 13 15  1  0  0  0  0 
M  END
> <CDK Fingerprint>
EAAAAAAAAAAAAAYAAAAAAAAAAAqAACiAgABAAAAAAIAAAuEAAAAEEAAAAAAAAAAoABAgAAAAAGAAAAAgAAABAAYUAAAAAAIAAAAGAAAAgAQIAQAAAAAACQECAAAAAAAhAAADgCIkIAAQAhIAAABgAAAAAIAAAAgAAAAAACAAAA==

> <ActivityOutcome_CPDBAS_Rat>
inactive

$$$$

  CDK     0721101958

  5  4  0  0  0  0  0  0  0  0999 V2000
    1.3300   -2.6600    0.0000 F   0  0  0  0  0  1  0  0  0  0  0  0
    1.3300   -1.3300    0.0000 C   0  0  0  0  0  4  0  0  0  0  0  0
    0.0000   -1.3300    0.0000 F   0  0  0  0  0  1  0  0  0  0  0  0
    1.3300    0.0000    0.0000 Cl  0  0  0  0  0  1  0  0  0  0  0  0
    2.6600   -1.3300    0.0000 Cl  0  0  0  0  0  1  0  0  0  0  0  0
  1  2  1  0  0  0  0 
  2  3  1  0  0  0  0 
  2  4  1  0  0  0  0 
  2  5  1  0  0  0  0 
M  END
> <CDK Fingerprint>
EAAAwAAAAAAgAAAAAAAAAAAAAAAGAAAAAAAAAAAAAAEAAAAAAAAAAAAAAAAAAAAAAAAAAAAAAAAAAAAAAAAAAAAAAAAAAAAAAAAAAAAAAAAAAAAAAAAAAAAAAAAAAAAA

> <ActivityOutcome_CPDBAS_Rat>
inactive

$$$$

  CDK     0721101958

 17 18  0  0  0  0  0  0  0  0999 V2000
    4.6090   -1.1486    0.0000 S   0  0  0  0  0  6  0  0  0  0  0  0
    5.7576   -0.4798    0.0000 O   0  0  0  0  0  2  0  0  0  0  0  0
    3.9474    0.0000    0.0000 O   0  0  0  0  0  2  0  0  0  0  0  0
    5.2778   -2.3045    0.0000 C   0  0  0  0  0  4  0  0  0  0  0  0
    6.6081   -2.3045    0.0000 C   0  0  0  0  0  4  0  0  0  0  0  0
    7.2697   -3.4458    0.0000 C   0  0  0  0  0  4  0  0  0  0  0  0
    6.6081   -4.6017    0.0000 C   0  0  0  0  0  4  0  0  0  0  0  0
    7.2697   -5.7576    0.0000 Cl  0  0  0  0  0  1  0  0  0  0  0  0
    5.2778   -4.6017    0.0000 C   0  0  0  0  0  4  0  0  0  0  0  0
    4.6090   -3.4458    0.0000 C   0  0  0  0  0  4  0  0  0  0  0  0
    3.4531   -1.8101    0.0000 C   0  0  0  0  0  4  0  0  0  0  0  0
    3.4531   -3.1405    0.0000 C   0  0  0  0  0  4  0  0  0  0  0  0
    2.3118   -3.8166    0.0000 C   0  0  0  0  0  4  0  0  0  0  0  0
    1.1559   -3.1405    0.0000 C   0  0  0  0  0  4  0  0  0  0  0  0
    0.0000   -3.8166    0.0000 Cl  0  0  0  0  0  1  0  0  0  0  0  0
    1.1559   -1.8101    0.0000 C   0  0  0  0  0  4  0  0  0  0  0  0
    2.3118   -1.1486    0.0000 C   0  0  0  0  0  4  0  0  0  0  0  0
  1  2  2  0  0  0  0 
  1  3  2  0  0  0  0 
  1  4  1  0  0  0  0 
  1 11  1  0  0  0  0 
  4  5  1  0  0  0  0 
  4 10  2  0  0  0  0 
  5  6  2  0  0  0  0 
  6  7  1  0  0  0  0 
  7  8  1  0  0  0  0 
  7  9  2  0  0  0  0 
  9 10  1  0  0  0  0 
 11 12  1  0  0  0  0 
 11 17  2  0  0  0  0 
 12 13  2  0  0  0  0 
 13 14  1  0  0  0  0 
 14 15  1  0  0  0  0 
 14 16  2  0  0  0  0 
 16 17  1  0  0  0  0 
M  END
> <CDK Fingerprint>
AIAAAAAAAAAAAAAgAAAAAAEAACAAAAAAAAAQAAgBAAAAAeAAAAAEAAAAAIAAAAAgEAAAABAAAEAAABAAAIABAAAAAAAAEAAAQAAAIAAAAAAgIACAAAAAIQEAEAAAAAAgAAAAgCBEAAAAABKAEAAAAAAAAIAAICQBAAAAAAEAAA==

> <ActivityOutcome_CPDBAS_Rat>
inactive

$$$$

  CDK     0721101958

  4  3  0  0  0  0  0  0  0  0999 V2000
    1.9950    0.0000    0.0000 C   0  0  0  0  0  4  0  0  0  0  0  0
    1.3292   -1.1518    0.0000 C   0  0  0  0  0  4  0  0  0  0  0  0
    1.9950   -2.3037    0.0000 Cl  0  0  0  0  0  1  0  0  0  0  0  0
    0.0000   -1.1518    0.0000 Cl  0  0  0  0  0  1  0  0  0  0  0  0
  1  2  1  0  0  0  0 
  2  3  1  0  0  0  0 
  2  4  1  0  0  0  0 
M  END
> <CDK Fingerprint>
AMAAAAAAAAAAAAAAAAAgAAAABgAAAAAAAAAAAAABAAAAAAAAAAAAAAAAAAAAAAAAAAAAAAAAAAAAAAAAAAAAAAAAAAAAAAAAAAAAAAAAAAAAAAAAAAAAAAAAAAAAAA==

> <ActivityOutcome_CPDBAS_Rat>
inactive

$$$$

  CDK     0721101958

  4  3  0  0  0  0  0  0  0  0999 V2000
    0.0000    0.0000    0.0000 Cl  0  0  0  0  0  1  0  0  0  0  0  0
    1.1513   -0.6638    0.0000 C   0  0  0  0  0  4  0  0  0  0  0  0
    2.3061    0.0000    0.0000 C   0  0  0  0  0  4  0  0  0  0  0  0
    3.4575   -0.6638    0.0000 Cl  0  0  0  0  0  1  0  0  0  0  0  0
  1  2  1  0  0  0  0 
  2  3  1  0  0  0  0 
  3  4  1  0  0  0  0 
M  END
> <CDK Fingerprint>
AMAAAAAAAAAAAAAAAAAgAAAAAgAAAAAAAAAAAAABAAAABAAAAAAAAAAAAAAAAAAAAAAAAAAAAAAAAAAAAAAAAAAAAAAAAAAAAAAAAAAAAAAAAAAAAAAAAAAAAAAAAA==

> <ActivityOutcome_CPDBAS_Rat>
active

> <TD50_Rat_mmol>
0.148

$$$$

  CDK     0721101958

  9  9  0  0  0  0  0  0  0  0999 V2000
    0.0000   -2.6589    0.0000 Cl  0  0  0  0  0  1  0  0  0  0  0  0
    1.1520   -1.9953    0.0000 C   0  0  0  0  0  4  0  0  0  0  0  0
    1.1520   -0.6636    0.0000 C   0  0  0  0  0  4  0  0  0  0  0  0
    2.3041    0.0000    0.0000 C   0  0  0  0  0  4  0  0  0  0  0  0
    3.4561   -0.6636    0.0000 C   0  0  0  0  0  4  0  0  0  0  0  0
    3.4561   -1.9953    0.0000 C   0  0  0  0  0  4  0  0  0  0  0  0
    2.3041   -2.6589    0.0000 C   0  0  0  0  0  4  0  0  0  0  0  0
    4.6082   -2.6589    0.0000 Cl  0  0  0  0  0  1  0  0  0  0  0  0
    0.0000    0.0000    0.0000 O   0  0  0  0  0  2  0  0  0  0  0  0
  1  2  1  0  0  0  0 
  2  3  2  0  0  0  0 
  2  7  1  0  0  0  0 
  3  4  1  0  0  0  0 
  3  9  1  0  0  0  0 
  4  5  2  0  0  0  0 
  5  6  1  0  0  0  0 
  6  7  2  0  0  0  0 
  6  8  1  0  0  0  0 
M  END
> <CDK Fingerprint>
CAAAAAAAAAAAAEIAAAAAAAAAAAAAAAAAAAAAAAAAAAAAAuEAAAAAAAAAAAAAAAAgAAAgAAAAAEAAAAQAAAABAAAAAAAAAAAAAAAAAAAAgAAEAAAAAAAAAQEAAAAAAAAgAAAAgCAkAAAAABIAAAAAAAAAAIAAAAAAAAAAAAAAAA==

> <ActivityOutcome_CPDBAS_Rat>
inactive

$$$$

  CDK     0721101958

 13 13  0  0  0  0  0  0  0  0999 V2000
    6.0582    0.0000    0.0000 Cl  0  0  0  0  0  1  0  0  0  0  0  0
    6.0582    1.4000    0.0000 C   0  0  0  0  0  4  0  0  0  0  0  0
    4.8448    2.0957    0.0000 C   0  0  0  0  0  4  0  0  0  0  0  0
    4.8448    3.4958    0.0000 C   0  0  0  0  0  4  0  0  0  0  0  0
    6.0582    4.2000    0.0000 C   0  0  0  0  0  4  0  0  0  0  0  0
    7.2715    3.4958    0.0000 C   0  0  0  0  0  4  0  0  0  0  0  0
    7.2715    2.0957    0.0000 C   0  0  0  0  0  4  0  0  0  0  0  0
    8.4849    4.2000    0.0000 Cl  0  0  0  0  0  1  0  0  0  0  0  0
    3.6400    1.4000    0.0000 O   0  0  0  0  0  2  0  0  0  0  0  0
    2.4267    2.0957    0.0000 C   0  0  0  0  0  4  0  0  0  0  0  0
    1.2133    1.4000    0.0000 C   0  0  0  0  0  4  0  0  0  0  0  0
    1.2133    0.0000    0.0000 O   0  0  0  0  0  2  0  0  0  0  0  0
    0.0000    2.0957    0.0000 O   0  0  0  0  0  2  0  0  0  0  0  0
  1  2  1  0  0  0  0 
  2  3  2  0  0  0  0 
  2  7  1  0  0  0  0 
  3  4  1  0  0  0  0 
  3  9  1  0  0  0  0 
  4  5  2  0  0  0  0 
  5  6  1  0  0  0  0 
  6  7  2  0  0  0  0 
  6  8  1  0  0  0  0 
  9 10  1  0  0  0  0 
 10 11  1  0  0  0  0 
 11 12  2  0  0  0  0 
 11 13  1  0  0  0  0 
M  END
> <CDK Fingerprint>
BAgCAAIAAAAAAABCABAABAAAAAAAAAAAgAAAAAAAAIAIAALhAAAAAAAAAAgAAAAIIAIgKACAAABgAAAMAAAAAQACEAAAAAAAAAAABAAAAKAARAAAAAAAAIEBEAAIAEAAIABAAIAgJCEAAAASAAAAAIAAAACAUABAAAAAAAAoBAA=

> <ActivityOutcome_CPDBAS_Rat>
inactive

$$$$

  CDK     0721101958

  5  4  0  0  0  0  0  0  0  0999 V2000
    3.4567   -1.9945    0.0000 C   0  0  0  0  0  4  0  0  0  0  0  0
    2.3056   -1.3308    0.0000 C   0  0  0  0  0  4  0  0  0  0  0  0
    1.1511   -1.9945    0.0000 C   0  0  0  0  0  4  0  0  0  0  0  0
    0.0000   -1.3308    0.0000 Cl  0  0  0  0  0  1  0  0  0  0  0  0
    2.3056    0.0000    0.0000 Cl  0  0  0  0  0  1  0  0  0  0  0  0
  1  2  1  0  0  0  0 
  2  3  1  0  0  0  0 
  2  5  1  0  0  0  0 
  3  4  1  0  0  0  0 
M  END
> <CDK Fingerprint>
AMAAAAAAAAAAAAAAAAAgAAAAAgAAAAAAAABAAAABAAAABAAAgAAAAAAAAAAAAAAAAAAAAAAAAAAAAAAAAAAAAAAAAAAAAAAAAAAAAAAAAAAAAAAAAAAAAAAAAAAAAA==

> <ActivityOutcome_CPDBAS_Rat>
inactive

$$$$

  CDK     0721101958

 11 10  0  0  0  0  0  0  0  0999 V2000
    3.3245   -1.9911    0.0000 O   0  0  0  0  0  2  0  0  0  0  0  0
    1.9911   -1.9911    0.0000 P   0  0  0  0  0  5  0  0  0  0  0  0
    1.9911   -3.3245    0.0000 O   0  0  0  0  0  2  0  0  0  0  0  0
    3.1451   -3.9882    0.0000 C   0  0  0  0  0  4  0  0  0  0  0  0
    3.1451   -5.3156    0.0000 C   0  0  0  0  0  4  0  0  0  0  0  0
    4.2931   -5.9793    0.0000 Cl  0  0  0  0  0  1  0  0  0  0  0  0
    1.9911   -5.9793    0.0000 Cl  0  0  0  0  0  1  0  0  0  0  0  0
    0.6637   -1.9911    0.0000 O   0  0  0  0  0  2  0  0  0  0  0  0
    0.0000   -3.1451    0.0000 C   0  0  0  0  0  4  0  0  0  0  0  0
    1.9911   -0.6637    0.0000 O   0  0  0  0  0  2  0  0  0  0  0  0
    3.1451    0.0000    0.0000 C   0  0  0  0  0  4  0  0  0  0  0  0
  1  2  2  0  0  0  0 
  2  3  1  0  0  0  0 
  2  8  1  0  0  0  0 
  2 10  1  0  0  0  0 
  3  4  1  0  0  0  0 
  4  5  2  0  0  0  0 
  5  6  1  0  0  0  0 
  5  7  1  0  0  0  0 
  8  9  1  0  0  0  0 
 10 11  1  0  0  0  0 
M  END
> <CDK Fingerprint>
AgAAAAAAAAAAAAAACAAAAAAAAAAAAAAB4AAAAAgAAAAAAAQAAAAQAAAEABAAACBCAAAAAAkABQAAAAgAAAAAAAAAAAAAABAAAQAAAAAABAABAAAAAAAAAAAAAAAIAgAAAAAEAAAAAAAAAAAAAAAAAAAAAIAA

> <ActivityOutcome_CPDBAS_Rat>
active

> <TD50_Rat_mmol>
0.0188

$$$$

  CDK     0721101958

 20 21  0  0  0  0  0  0  0  0999 V2000
    0.0000   -5.2475    0.0000 O   0  0  0  0  0  2  0  0  0  0  0  0
    1.3138   -5.2475    0.0000 C   0  0  0  0  0  4  0  0  0  0  0  0
    1.3138   -3.9337    0.0000 C   0  0  0  0  0  4  0  0  0  0  0  0
    0.1731   -3.2807    0.0000 C   0  0  0  0  0  4  0  0  0  0  0  0
    0.1731   -1.9668    0.0000 C   0  0  0  0  0  4  0  0  0  0  0  0
    1.3138   -1.3138    0.0000 C   0  0  0  0  0  4  0  0  0  0  0  0
    2.4467   -1.9668    0.0000 C   0  0  0  0  0  4  0  0  0  0  0  0
    2.4467   -3.2807    0.0000 C   0  0  0  0  0  4  0  0  0  0  0  0
    1.3138    0.0000    0.0000 Cl  0  0  0  0  0  1  0  0  0  0  0  0
    3.0132   -5.2475    0.0000 C   0  0  0  0  0  4  0  0  0  0  0  0
    3.6740   -4.1067    0.0000 C   0  0  0  0  0  4  0  0  0  0  0  0
    4.9800   -4.1067    0.0000 C   0  0  0  0  0  4  0  0  0  0  0  0
    5.6409   -5.2475    0.0000 C   0  0  0  0  0  4  0  0  0  0  0  0
    4.9800   -6.3804    0.0000 C   0  0  0  0  0  4  0  0  0  0  0  0
    3.6740   -6.3804    0.0000 C   0  0  0  0  0  4  0  0  0  0  0  0
    6.9468   -5.2475    0.0000 Cl  0  0  0  0  0  1  0  0  0  0  0  0
    1.3138   -6.5535    0.0000 C   0  0  0  0  0  4  0  0  0  0  0  0
    2.6198   -6.5535    0.0000 Cl  0  0  0  0  0  1  0  0  0  0  0  0
    1.3138   -7.8673    0.0000 Cl  0  0  0  0  0  1  0  0  0  0  0  0
    0.0000   -6.5535    0.0000 Cl  0  0  0  0  0  1  0  0  0  0  0  0
  1  2  1  0  0  0  0 
  2  3  1  0  0  0  0 
  2 10  1  0  0  0  0 
  2 17  1  0  0  0  0 
  3  4  2  0  0  0  0 
  3  8  1  0  0  0  0 
  4  5  1  0  0  0  0 
  5  6  2  0  0  0  0 
  6  7  1  0  0  0  0 
  6  9  1  0  0  0  0 
  7  8  2  0  0  0  0 
 10 11  2  0  0  0  0 
 10 15  1  0  0  0  0 
 11 12  1  0  0  0  0 
 12 13  2  0  0  0  0 
 13 14  1  0  0  0  0 
 13 16  1  0  0  0  0 
 14 15  2  0  0  0  0 
 17 18  1  0  0  0  0 
 17 19  1  0  0  0  0 
 17 20  1  0  0  0  0 
M  END
> <CDK Fingerprint>
AgCAAAAQAQAAAAAAAAAAAAAAAAAACAAA4AAAAAAAAAABAgAAACAAAAAGAAAgQAEAAEAAAAEABAgIIACAABAgAAAAACAACAAAAAAAAACBgRAAAACAACAAgADAIAQAEQABAkBABAgIgBQAgAAAQQABAAAAAAAA

> <ActivityOutcome_CPDBAS_Rat>
inactive

$$$$

  CDK     0721101958

 16 17  0  0  0  0  0  0  0  0999 V2000
    4.6029   -0.6628    0.0000 S   0  0  0  0  0  2  0  0  0  0  0  0
    4.6029   -1.9977    0.0000 C   0  0  0  0  0  4  0  0  0  0  0  0
    5.7537   -2.6605    0.0000 N   0  0  0  0  0  3  0  0  0  0  0  0
    6.9044   -1.9977    0.0000 C   0  0  0  0  0  4  0  0  0  0  0  0
    6.9044   -0.6628    0.0000 C   0  0  0  0  0  4  0  0  0  0  0  0
    8.0551    0.0000    0.0000 C   0  0  0  0  0  4  0  0  0  0  0  0
    9.2059   -0.6628    0.0000 C   0  0  0  0  0  4  0  0  0  0  0  0
    9.2059   -1.9977    0.0000 C   0  0  0  0  0  4  0  0  0  0  0  0
    8.0551   -2.6605    0.0000 C   0  0  0  0  0  4  0  0  0  0  0  0
    3.4522   -2.6605    0.0000 N   0  0  0  0  0  3  0  0  0  0  0  0
    2.3015   -1.9977    0.0000 C   0  0  0  0  0  4  0  0  0  0  0  0
    1.1507   -2.6605    0.0000 C   0  0  0  0  0  4  0  0  0  0  0  0
    0.0000   -1.9977    0.0000 C   0  0  0  0  0  4  0  0  0  0  0  0
    0.0000   -0.6628    0.0000 C   0  0  0  0  0  4  0  0  0  0  0  0
    1.1507    0.0000    0.0000 C   0  0  0  0  0  4  0  0  0  0  0  0
    2.3015   -0.6628    0.0000 C   0  0  0  0  0  4  0  0  0  0  0  0
  1  2  2  0  0  0  0 
  2  3  1  0  0  0  0 
  2 10  1  0  0  0  0 
  3  4  1  0  0  0  0 
  4  5  1  0  0  0  0 
  4  9  1  0  0  0  0 
  5  6  1  0  0  0  0 
  6  7  1  0  0  0  0 
  7  8  1  0  0  0  0 
  8  9  1  0  0  0  0 
 10 11  1  0  0  0  0 
 11 12  1  0  0  0  0 
 11 16  1  0  0  0  0 
 12 13  1  0  0  0  0 
 13 14  1  0  0  0  0 
 14 15  1  0  0  0  0 
 15 16  1  0  0  0  0 
M  END
> <CDK Fingerprint>
IAAAAhAASAABAAAAAAAAAAAAAEAAAAAAAAAAAAEBYAAAAICAAwAAAAgAACAAQAABAAAAAAAAQMAAAAAAAAAAAAAAQQAAAAAAAACAAAAAACAIQAAAEAAAIAAAAAAAIEAAAQAAAAAIIAQQAAAgAEAAAAAAAAgAAQAICgAA

> <ActivityOutcome_CPDBAS_Rat>
inactive

$$$$

  CDK     0721101958

 12 16  0  0  0  0  0  0  0  0999 V2000
    1.6166    1.4000    0.0000 C   0  0  0  0  0  4  0  0  0  0  0  0
    2.4249    2.8000    0.0000 C   0  0  0  0  0  4  0  0  0  0  0  0
    3.6373    2.1000    0.0000 C   0  0  0  0  0  4  0  0  0  0  0  0
    3.6373    0.7000    0.0000 C   0  0  0  0  0  4  0  0  0  0  0  0
    2.4249    0.0000    0.0000 C   0  0  0  0  0  4  0  0  0  0  0  0
    1.2124    0.7000    0.0000 C   0  0  0  0  0  4  0  0  0  0  0  0
    1.2124    2.1000    0.0000 C   0  0  0  0  0  4  0  0  0  0  0  0
    0.0000    1.4000    0.0000 O   0  0  0  0  0  2  0  0  0  0  0  0
    4.9688    0.2674    0.0000 C   0  0  0  0  0  4  0  0  0  0  0  0
    5.7917    1.4000    0.0000 C   0  0  0  0  0  4  0  0  0  0  0  0
    4.9688    2.5326    0.0000 C   0  0  0  0  0  4  0  0  0  0  0  0
    6.3611    2.6790    0.0000 O   0  0  0  0  0  2  0  0  0  0  0  0
  2  1  1  0  0  0  0 
  5  1  1  0  0  0  0 
  3  2  1  0  0  0  0 
  7  2  1  0  0  0  0 
  4  3  1  0  0  0  0 
 11  3  1  0  0  0  0 
  5  4  1  0  0  0  0 
  9  4  1  0  0  0  0 
  6  5  1  0  0  0  0 
  7  6  1  0  0  0  0 
  8  6  1  0  0  0  0 
  8  7  1  0  0  0  0 
 10  9  1  0  0  0  0 
 11 10  1  0  0  0  0 
 12 10  1  0  0  0  0 
 12 11  1  0  0  0  0 
M  END
> <CDK Fingerprint>
AIAAAAAAAAAAAAECBQAEABAkAAAAAAAAwAAAAAAAAAAQAQBgAIAAAAAAAAEhAAAQIAIiAASIAABAAAAAQGAAAAAAAAAAAgGAAAQAAEAAEQAAAAAAAAAAQAABEAAAAAAAAAAIAAAAQAAAAAAAABAAACAAAAAAABAAAAAAAAAAAAA=

> <ActivityOutcome_CPDBAS_Rat>
inactive

$$$$

  CDK     0721101958

 19 23  0  0  0  0  0  0  0  0999 V2000
    1.4023    2.7211    0.0000 C   0  0  0  0  0  4  0  0  0  0  0  0
    0.0000    2.7211    0.0000 O   0  0  0  0  0  2  0  0  0  0  0  0
    0.6845    1.5191    0.0000 C   0  0  0  0  0  4  0  0  0  0  0  0
    2.5709    2.4039    0.0000 C   0  0  0  0  0  4  0  0  0  0  0  0
    3.9064    2.6543    0.0000 C   0  0  0  0  0  4  0  0  0  0  0  0
    2.0534    1.2854    0.0000 C   0  0  0  0  0  4  0  0  0  0  0  0
    2.4039    0.0000    0.0000 C   0  0  0  0  0  4  0  0  0  0  0  0
    3.7728    1.5191    0.0000 C   0  0  0  0  0  4  0  0  0  0  0  0
    5.5424    3.4556    0.0000 C   0  0  0  0  0  4  0  0  0  0  0  0
    5.0249    2.1702    0.0000 C   0  0  0  0  0  4  0  0  0  0  0  0
    6.5106    1.4524    0.0000 C   0  0  0  0  0  4  0  0  0  0  0  0
    7.2285    2.6543    0.0000 C   0  0  0  0  0  4  0  0  0  0  0  0
    8.4805    2.9715    0.0000 Cl  0  0  0  0  0  1  0  0  0  0  0  0
    7.0281    0.2337    0.0000 Cl  0  0  0  0  0  1  0  0  0  0  0  0
    4.5407    0.8013    0.0000 Cl  0  0  0  0  0  1  0  0  0  0  0  0
    5.0249    4.8579    0.0000 C   0  0  0  0  0  4  0  0  0  0  0  0
    5.8596    5.7427    0.0000 Cl  0  0  0  0  0  1  0  0  0  0  0  0
    4.0566    5.6592    0.0000 Cl  0  0  0  0  0  1  0  0  0  0  0  0
    6.4605    4.4239    0.0000 Cl  0  0  0  0  0  1  0  0  0  0  0  0
  1  2  1  1  0  0  0 
  3  1  1  0  0  0  0 
  4  1  1  0  0  0  0 
  3  2  1  1  0  0  0 
  6  3  1  0  0  0  0 
  5  4  1  0  0  0  0 
  4  7  1  6  0  0  0 
  9  5  1  0  0  0  0 
  8  5  1  0  0  0  0 
  6  7  1  1  0  0  0 
  8  6  1  0  0  0  0 
 10  8  1  0  0  0  0 
 12  9  1  0  0  0  0 
  9 16  1  6  0  0  0 
 19  9  1  0  0  0  0 
 11 10  1  0  0  0  0 
 10 16  1  6  0  0  0 
 15 10  1  0  0  0  0 
 12 11  2  0  0  0  0 
 14 11  1  0  0  0  0 
 13 12  1  0  0  0  0 
 17 16  1  0  0  0  0 
 18 16  1  0  0  0  0 
M  END
> <CDK Fingerprint>
AMAAAQAAAAAAAAACIxAEABAgAAbADEAAwBAAAACBAAAAUQjwAIAAAIAAAAEgEUAQqDLgAA5IUAABClgAQEQEAQAAA6QEAoGASgQAQEAEEYAAACAAwAAAQABBEEAAAAAEAEIoAADgYAAgAABAABAAAAAAMAAAgBgAAAAAQAAAACA=

> <ActivityOutcome_CPDBAS_Rat>
inactive

$$$$

  CDK     0721101958

 19 24  0  0  0  0  0  0  0  0999 V2000
    7.6464   -1.4299    0.0000 O   0  0  0  0  0  2  0  0  0  0  0  0
    6.4230   -2.6380    0.0000 C   0  0  0  0  0  4  0  0  0  0  0  0
    5.7730   -1.5904    0.0000 C   0  0  0  0  0  4  0  0  0  0  0  0
    4.6719   -2.3169    0.0000 C   0  0  0  0  0  4  0  0  0  0  0  0
    4.7561   -1.2999    0.0000 C   0  0  0  0  0  4  0  0  0  0  0  0
    3.6167   -2.8521    0.0000 C   0  0  0  0  0  4  0  0  0  0  0  0
    3.2497   -1.8351    0.0000 C   0  0  0  0  0  4  0  0  0  0  0  0
    4.0985   -0.7799    0.0000 C   0  0  0  0  0  4  0  0  0  0  0  0
    2.3245   -2.4468    0.0000 C   0  0  0  0  0  4  0  0  0  0  0  0
    0.8487   -2.8368    0.0000 C   0  0  0  0  0  4  0  0  0  0  0  0
    2.6380   -1.6899    0.0000 C   0  0  0  0  0  4  0  0  0  0  0  0
    1.6287   -1.1852    0.0000 C   0  0  0  0  0  4  0  0  0  0  0  0
    2.1869   -0.4970    0.0000 C   0  0  0  0  0  4  0  0  0  0  0  0
    1.7587   -3.5862    0.0000 Cl  0  0  0  0  0  1  0  0  0  0  0  0
    0.0000   -2.4316    0.0000 Cl  0  0  0  0  0  1  0  0  0  0  0  0
    0.8487   -3.6550    0.0000 Cl  0  0  0  0  0  1  0  0  0  0  0  0
    0.2370   -0.6346    0.0000 Cl  0  0  0  0  0  1  0  0  0  0  0  0
    2.7680    0.0000    0.0000 Cl  0  0  0  0  0  1  0  0  0  0  0  0
    3.3797   -1.2234    0.0000 Cl  0  0  0  0  0  1  0  0  0  0  0  0
  1  2  1  0  0  0  0 
  1  3  1  0  0  0  0 
  2  3  1  0  0  0  0 
  2  4  1  0  0  0  0 
  3  5  1  0  0  0  0 
  4  6  1  0  0  0  0 
  4  8  1  0  0  0  0 
  5  7  1  0  0  0  0 
  5  8  1  0  0  0  0 
  6  7  1  0  0  0  0 
  6  9  1  0  0  0  0 
  7 11  1  0  0  0  0 
  8 12  1  0  0  0  0 
  9 10  1  0  0  0  0 
  9 12  1  0  0  0  0 
  9 14  1  0  0  0  0 
 10 11  1  0  0  0  0 
 10 15  1  0  0  0  0 
 10 16  1  0  0  0  0 
 11 13  1  0  0  0  0 
 11 19  1  0  0  0  0 
 12 13  1  0  0  0  0 
 12 17  1  0  0  0  0 
 13 18  1  0  0  0  0 
M  END
> <CDK Fingerprint>
AIAAAQAAAAAAAAACAwAEABAgAAAAAAAAwAAAAAAAAAAAAQDgAIAAAAAAAAEgAAAQqALgAA5AAAABAAAAQEAAAQAAA4QAAoGAQgQAAEAAEQAAACAAAAAAQAABEAAAAAAAAAAoAAAAYAAAAAAAABAAAAAAAAAAABAAAAAAAAAAAAA=

> <ActivityOutcome_CPDBAS_Rat>
inactive

$$$$

  CDK     0721101958

  6  7  0  0  0  0  0  0  0  0999 V2000
    1.1400   -0.6571    0.0000 C   0  0  0  0  0  4  0  0  0  0  0  0
    0.0000   -1.3324    0.0000 C   0  0  0  0  0  4  0  0  0  0  0  0
    0.0000    0.0000    0.0000 O   0  0  0  0  0  2  0  0  0  0  0  0
    2.4723   -0.6571    0.0000 C   0  0  0  0  0  4  0  0  0  0  0  0
    3.6304    0.0000    0.0000 C   0  0  0  0  0  4  0  0  0  0  0  0
    3.6304   -1.3324    0.0000 O   0  0  0  0  0  2  0  0  0  0  0  0
  1  2  1  0  0  0  0 
  1  3  1  0  0  0  0 
  1  4  1  0  0  0  0 
  2  3  1  0  0  0  0 
  4  5  1  0  0  0  0 
  4  6  1  0  0  0  0 
  5  6  1  0  0  0  0 
M  END
> <CDK Fingerprint>
AgAAAAAAAAAAAAAAAIAAAAEAAAAAAAAAYAAAAAAAAAAAAAAAGCACAgAAAAAAAAAAAEAAAAAAAAAAAAAAAAAAAAAAAAAAAAAAAAAAAEAAABAAAABCAAAAAAAAAAAAAAAAAAAQAAAAAAAAAAAwAAAAAAAAAAAA

> <ActivityOutcome_CPDBAS_Rat>
inactive

$$$$

  CDK     0721101958

 20 21  0  0  0  0  0  0  0  0999 V2000
    5.3145   -3.4592    0.0000 N   0  0  0  0  0  3  0  0  0  0  0  0
    5.9848   -2.3101    0.0000 N   0  0  0  0  0  3  0  0  0  0  0  0
    7.3134   -2.3101    0.0000 C   0  0  0  0  0  4  0  0  0  0  0  0
    7.9837   -1.1491    0.0000 C   0  0  0  0  0  4  0  0  0  0  0  0
    9.3124   -1.1491    0.0000 C   0  0  0  0  0  4  0  0  0  0  0  0
    9.9707   -2.3101    0.0000 C   0  0  0  0  0  4  0  0  0  0  0  0
    9.3124   -3.4592    0.0000 C   0  0  0  0  0  4  0  0  0  0  0  0
    7.9837   -3.4592    0.0000 C   0  0  0  0  0  4  0  0  0  0  0  0
   11.2993   -2.3101    0.0000 N   0  0  0  0  0  3  0  0  0  0  0  0
   11.9696   -3.4592    0.0000 C   0  0  0  0  0  4  0  0  0  0  0  0
   11.9696   -1.1491    0.0000 C   0  0  0  0  0  4  0  0  0  0  0  0
    3.9859   -3.4592    0.0000 C   0  0  0  0  0  4  0  0  0  0  0  0
    3.3275   -4.6083    0.0000 C   0  0  0  0  0  4  0  0  0  0  0  0
    1.9989   -4.6083    0.0000 C   0  0  0  0  0  4  0  0  0  0  0  0
    1.3286   -3.4592    0.0000 N   0  0  0  0  0  4  0  0  0  0  0  0
    1.9989   -2.3101    0.0000 C   0  0  0  0  0  4  0  0  0  0  0  0
    3.3275   -2.3101    0.0000 C   0  0  0  0  0  4  0  0  0  0  0  0
    0.0000   -3.4592    0.0000 O   0  0  0  0  0  1  0  0  0  0  0  0
   11.2993   -4.6083    0.0000 C   0  0  0  0  0  4  0  0  0  0  0  0
   11.2993    0.0000    0.0000 C   0  0  0  0  0  4  0  0  0  0  0  0
  1  2  2  0  0  0  0 
  1 12  1  0  0  0  0 
  2  3  1  0  0  0  0 
  3  4  2  0  0  0  0 
  3  8  1  0  0  0  0 
  4  5  1  0  0  0  0 
  5  6  2  0  0  0  0 
  6  7  1  0  0  0  0 
  6  9  1  0  0  0  0 
  7  8  2  0  0  0  0 
  9 10  1  0  0  0  0 
  9 11  1  0  0  0  0 
 10 19  1  0  0  0  0 
 11 20  1  0  0  0  0 
 12 13  2  0  0  0  0 
 12 17  1  0  0  0  0 
 13 14  1  0  0  0  0 
 14 15  2  0  0  0  0 
 15 16  1  0  0  0  0 
 15 18  1  0  0  0  0 
 16 17  2  0  0  0  0 
M  CHG  1  15   1
M  CHG  1  18  -1
M  END
> <CDK Fingerprint>
EAIAkUIAIgAIDAAAQAUCAABAAQAAQBEIQAgABEgSgAAAaBAAQAAAAAAAAEIAiCAABAAAAAMAQgQACIAEIBBBAgAHAAAAACAAAAEAgACQAIAAAAAAAAAAICAAAAAAgCAAAAIAIAAAIAAABgAAAAgARABAgAACAACAEAAAAxCA

> <ActivityOutcome_CPDBAS_Rat>
active

> <TD50_Rat_mmol>
0.00603

$$$$

  CDK     0721101958

 14 14  0  0  0  0  0  0  0  0999 V2000
    6.6497   -2.3074    0.0000 C   0  0  0  0  0  4  0  0  0  0  0  0
    5.9847   -1.1570    0.0000 C   0  0  0  0  0  4  0  0  0  0  0  0
    4.6548   -1.1570    0.0000 N   0  0  0  0  0  3  0  0  0  0  0  0
    3.9898    0.0000    0.0000 C   0  0  0  0  0  4  0  0  0  0  0  0
    2.6599    0.0000    0.0000 C   0  0  0  0  0  4  0  0  0  0  0  0
    3.9898   -2.3074    0.0000 C   0  0  0  0  0  4  0  0  0  0  0  0
    4.6548   -3.4578    0.0000 O   0  0  0  0  0  2  0  0  0  0  0  0
    2.6599   -2.3074    0.0000 C   0  0  0  0  0  4  0  0  0  0  0  0
    1.9949   -3.4578    0.0000 C   0  0  0  0  0  4  0  0  0  0  0  0
    0.6650   -3.4578    0.0000 C   0  0  0  0  0  4  0  0  0  0  0  0
    0.0000   -2.3074    0.0000 C   0  0  0  0  0  4  0  0  0  0  0  0
    0.6650   -1.1570    0.0000 C   0  0  0  0  0  4  0  0  0  0  0  0
    0.0000    0.0000    0.0000 C   0  0  0  0  0  4  0  0  0  0  0  0
    1.9949   -1.1570    0.0000 C   0  0  0  0  0  4  0  0  0  0  0  0
  1  2  1  0  0  0  0 
  2  3  1  0  0  0  0 
  3  4  1  0  0  0  0 
  3  6  1  0  0  0  0 
  4  5  1  0  0  0  0 
  6  7  2  0  0  0  0 
  6  8  1  0  0  0  0 
  8  9  2  0  0  0  0 
  8 14  1  0  0  0  0 
  9 10  1  0  0  0  0 
 10 11  2  0  0  0  0 
 11 12  1  0  0  0  0 
 12 13  1  0  0  0  0 
 12 14  2  0  0  0  0 
M  END
> <CDK Fingerprint>
EAAAAAAAQhCAAAAACAAAIAAAAAAACAAQEAAAACgkAAAAaAAAABQAAAAAAAABADAAAAQAAAAAQAAAAIAAACKABAAAAAAAAAAAAAAAAACAAAAAAAAAAAABgAAAAACAACAAQABAIAAAIAAAAkAAAABAAAIAgFIIQAAAAAQAAgAA

> <ActivityOutcome_CPDBAS_Rat>
inactive

$$$$

  CDK     0721101958

 18 18  0  0  0  0  0  0  0  0999 V2000
    6.4226   -4.6073    0.0000 S   0  0  0  0  0  2  0  0  0  0  0  0
    5.7591   -3.4555    0.0000 P   0  0  0  0  0  5  0  0  0  0  0  0
    4.6073   -4.1189    0.0000 O   0  0  0  0  0  2  0  0  0  0  0  0
    3.4555   -3.4555    0.0000 C   0  0  0  0  0  4  0  0  0  0  0  0
    2.3036   -4.1189    0.0000 N   0  0  0  0  0  3  0  0  0  0  0  0
    1.1518   -3.4555    0.0000 C   0  0  0  0  0  4  0  0  0  0  0  0
    1.1518   -2.1286    0.0000 C   0  0  0  0  0  4  0  0  0  0  0  0
    2.3036   -1.4559    0.0000 C   0  0  0  0  0  4  0  0  0  0  0  0
    3.4555   -2.1286    0.0000 C   0  0  0  0  0  4  0  0  0  0  0  0
    4.6073   -1.4559    0.0000 Cl  0  0  0  0  0  1  0  0  0  0  0  0
    0.0000   -1.4559    0.0000 Cl  0  0  0  0  0  1  0  0  0  0  0  0
    0.0000   -4.1189    0.0000 Cl  0  0  0  0  0  1  0  0  0  0  0  0
    5.0957   -2.3036    0.0000 O   0  0  0  0  0  2  0  0  0  0  0  0
    5.7591   -1.1518    0.0000 C   0  0  0  0  0  4  0  0  0  0  0  0
    5.0957    0.0000    0.0000 C   0  0  0  0  0  4  0  0  0  0  0  0
    6.9109   -2.7920    0.0000 O   0  0  0  0  0  2  0  0  0  0  0  0
    8.0627   -3.4555    0.0000 C   0  0  0  0  0  4  0  0  0  0  0  0
    9.2146   -2.7920    0.0000 C   0  0  0  0  0  4  0  0  0  0  0  0
  1  2  2  0  0  0  0 
  2  3  1  0  0  0  0 
  2 13  1  0  0  0  0 
  2 16  1  0  0  0  0 
  3  4  1  0  0  0  0 
  4  5  2  0  0  0  0 
  4  9  1  0  0  0  0 
  5  6  1  0  0  0  0 
  6  7  2  0  0  0  0 
  6 12  1  0  0  0  0 
  7  8  1  0  0  0  0 
  7 11  1  0  0  0  0 
  8  9  2  0  0  0  0 
  9 10  1  0  0  0  0 
 13 14  1  0  0  0  0 
 14 15  1  0  0  0  0 
 16 17  1  0  0  0  0 
 17 18  1  0  0  0  0 
M  END
> <CDK Fingerprint>
QJgAIiSwAoAQwETOCACgAAKAAAAAAAAYAgACAAABCABAIgvgkAAAAAQAACBAIYAIIgRAYAEAgAPkEMAAAAACCQMBAAEAAAAQAEAFAABEAIAwiAAQAIAKABAFMAIAFAAAIABEkJBoJQgCAAJQAEAAgBCAAACAAAARAAIAAQABAAA=

> <ActivityOutcome_CPDBAS_Rat>
inactive

$$$$

  CDK     0721101958

  8  7  0  0  0  0  0  0  0  0999 V2000
    3.9901   -1.1531    0.0000 C   0  0  0  0  0  4  0  0  0  0  0  0
    2.6614   -1.1531    0.0000 C   0  0  0  0  0  4  0  0  0  0  0  0
    1.9951    0.0000    0.0000 O   0  0  0  0  0  2  0  0  0  0  0  0
    1.9951   -2.3023    0.0000 N   0  0  0  0  0  3  0  0  0  0  0  0
    2.6614   -3.4554    0.0000 C   0  0  0  0  0  4  0  0  0  0  0  0
    3.9901   -3.4554    0.0000 C   0  0  0  0  0  4  0  0  0  0  0  0
    0.6664   -2.3023    0.0000 C   0  0  0  0  0  4  0  0  0  0  0  0
    0.0000   -3.4554    0.0000 C   0  0  0  0  0  4  0  0  0  0  0  0
  1  2  1  0  0  0  0 
  2  3  2  0  0  0  0 
  2  4  1  0  0  0  0 
  4  5  1  0  0  0  0 
  4  7  1  0  0  0  0 
  5  6  1  0  0  0  0 
  7  8  1  0  0  0  0 
M  END
> <CDK Fingerprint>
EAAAAAAAAgAAAAAAAAAAAAAAAAAAAAAAAAAAAAAAAAAAYAAAAAAAAAAAAAABACAAAAAAAAAAAAAAAIAAAACAAAAAAAAAAAAAAAAAAACAAAAAAAAAAAAAAAAAAAAAAAAAQAAAAAAAAAAAAAAAAAAAAAAAAFAAAAAAAAAAAgAA

> <ActivityOutcome_CPDBAS_Rat>
active

> <TD50_Rat_mmol>
0.0768

$$$$

  CDK     0721101958

 11 10  0  0  0  0  0  0  0  0999 V2000
    1.1549   -1.3347    0.0000 C   0  0  0  0  0  4  0  0  0  0  0  0
    1.1549    0.0000    0.0000 O   0  0  0  0  0  2  0  0  0  0  0  0
    2.3098   -1.9917    0.0000 N   0  0  0  0  0  3  0  0  0  0  0  0
    0.0000   -1.9917    0.0000 N   0  0  0  0  0  3  0  0  0  0  0  0
    3.4578   -1.3347    0.0000 C   0  0  0  0  0  4  0  0  0  0  0  0
    3.4578    0.0000    0.0000 O   0  0  0  0  0  2  0  0  0  0  0  0
    4.6058   -1.9917    0.0000 C   0  0  0  0  0  4  0  0  0  0  0  0
    4.6058   -3.3264    0.0000 C   0  0  0  0  0  4  0  0  0  0  0  0
    5.7608   -3.9834    0.0000 C   0  0  0  0  0  4  0  0  0  0  0  0
    5.7608   -1.3278    0.0000 C   0  0  0  0  0  4  0  0  0  0  0  0
    6.9157   -1.9917    0.0000 C   0  0  0  0  0  4  0  0  0  0  0  0
  1  2  2  0  0  0  0 
  1  3  1  0  0  0  0 
  1  4  1  0  0  0  0 
  3  5  1  0  0  0  0 
  5  6  2  0  0  0  0 
  5  7  1  0  0  0  0 
  7  8  1  0  0  0  0 
  7 10  1  0  0  0  0 
  8  9  1  0  0  0  0 
 10 11  1  0  0  0  0 
M  END
> <CDK Fingerprint>
EAAAAhAAQAABAAAAAAAAAAAAAAAAAAAAAAAAAAEAYAAAAIAAAAAAAAABQCAAQAACAAAAAAAAIMAAAACAAAAAAAAAQAAAAAAAAACAAABAACAAQAAAAAAAAAAAAAAAQAAAAAAAAAAAAAAQAAEgAAAAAFAAAAAAAAAAAgAA

> <ActivityOutcome_CPDBAS_Rat>
inactive

$$$$

  CDK     0721101958

  7  6  0  0  0  0  0  0  0  0999 V2000
    0.0000   -0.6638    0.0000 O   0  0  0  0  0  2  0  0  0  0  0  0
    1.1548    0.0000    0.0000 C   0  0  0  0  0  4  0  0  0  0  0  0
    2.3027   -0.6638    0.0000 C   0  0  0  0  0  4  0  0  0  0  0  0
    3.4575    0.0000    0.0000 O   0  0  0  0  0  2  0  0  0  0  0  0
    4.6122   -0.6638    0.0000 C   0  0  0  0  0  4  0  0  0  0  0  0
    5.7601    0.0000    0.0000 C   0  0  0  0  0  4  0  0  0  0  0  0
    6.9149   -0.6638    0.0000 O   0  0  0  0  0  2  0  0  0  0  0  0
  1  2  1  0  0  0  0 
  2  3  1  0  0  0  0 
  3  4  1  0  0  0  0 
  4  5  1  0  0  0  0 
  5  6  1  0  0  0  0 
  6  7  1  0  0  0  0 
M  END
> <CDK Fingerprint>
AgAAAAAAAAAAAAAAEIAAAAAAAAAAAAAAYACAAAAAAAAAAAAACCACAAAAAAAAAAAAAAAAAAAAAAAAAAAAAAAAAAAAAAAAAAAAAAAgAAAAABAAAABAAAAAAAAAAAAAAAAAAAAAAAAAAAAAAAAAAAAAAAAAAAAA

> <ActivityOutcome_CPDBAS_Rat>
active

> <TD50_Rat_mmol>
15.6

$$$$

  CDK     0721101958

  7  6  0  0  0  0  0  0  0  0999 V2000
    3.9928    0.0000    0.0000 C   0  0  0  0  0  4  0  0  0  0  0  0
    2.6632    0.0000    0.0000 C   0  0  0  0  0  4  0  0  0  0  0  0
    1.9964   -1.1499    0.0000 N   0  0  0  0  0  3  0  0  0  0  0  0
    2.6632   -2.3038    0.0000 C   0  0  0  0  0  4  0  0  0  0  0  0
    3.9928   -2.3038    0.0000 C   0  0  0  0  0  4  0  0  0  0  0  0
    0.6668   -1.1499    0.0000 C   0  0  0  0  0  4  0  0  0  0  0  0
    0.0000    0.0000    0.0000 O   0  0  0  0  0  2  0  0  0  0  0  0
  1  2  1  0  0  0  0 
  2  3  1  0  0  0  0 
  3  4  1  0  0  0  0 
  3  6  1  0  0  0  0 
  4  5  1  0  0  0  0 
  6  7  2  0  0  0  0 
M  END
> <CDK Fingerprint>
EAAAAAAAAgAAAAAAAAAAAAAAAAAAAAAAAAAAAAAAAAAAYAAAAAAAAAAAAAABACAAAAAAAAAAAAAAAIAAAACAAAAAAAAAAAAAAAAAAACAAAAAAAAAAAAAAAAAAAAAAAAAQAAAAAAAAAAAAAAAAAAAAAAAAEAAAAAAAAAAAgAA

> <ActivityOutcome_CPDBAS_Rat>
inactive

$$$$

  CDK     0721101958

 12 11  0  0  0  0  0  0  0  0999 V2000
    1.1545   -5.3201    0.0000 O   0  0  0  0  0  2  0  0  0  0  0  0
    1.1545   -3.9901    0.0000 C   0  0  0  0  0  4  0  0  0  0  0  0
    0.0000   -3.3251    0.0000 C   0  0  0  0  0  4  0  0  0  0  0  0
    0.0000   -1.9950    0.0000 C   0  0  0  0  0  4  0  0  0  0  0  0
    1.1491   -1.3300    0.0000 C   0  0  0  0  0  4  0  0  0  0  0  0
    1.1491    0.0000    0.0000 O   0  0  0  0  0  2  0  0  0  0  0  0
    2.3036   -1.9950    0.0000 O   0  0  0  0  0  2  0  0  0  0  0  0
    3.4527   -1.3300    0.0000 C   0  0  0  0  0  4  0  0  0  0  0  0
    4.6072   -1.9950    0.0000 C   0  0  0  0  0  4  0  0  0  0  0  0
    2.3036   -3.3251    0.0000 O   0  0  0  0  0  2  0  0  0  0  0  0
    3.4581   -3.9901    0.0000 C   0  0  0  0  0  4  0  0  0  0  0  0
    4.6072   -3.3251    0.0000 C   0  0  0  0  0  4  0  0  0  0  0  0
  1  2  2  0  0  0  0 
  2  3  1  0  0  0  0 
  2 10  1  0  0  0  0 
  3  4  2  0  0  0  0 
  4  5  1  0  0  0  0 
  5  6  2  0  0  0  0 
  5  7  1  0  0  0  0 
  7  8  1  0  0  0  0 
  8  9  1  0  0  0  0 
 10 11  1  0  0  0  0 
 11 12  1  0  0  0  0 
M  END
> <CDK Fingerprint>
QAABAAAAAAAIAAIAAAAAAAAAAAAAAACgEgAAgAAAAAAAgGAAgAAAAAAAAAAAAEAgAgAAABAQAAAAgAAAAAAAAAAAAABAAAAAAAAAAAAAAAAAAAAAAAAAAAAxAAAAAAAAAEAAAAAAAAAAAAAAAAAAgQAAAABwCAAAAAAQAAAAIA==

> <ActivityOutcome_CPDBAS_Rat>
inactive

$$$$

  CDK     0721101958

 20 21  0  0  0  0  0  0  0  0999 V2000
    6.0553   -3.7463    0.0000 C   0  0  0  0  0  4  0  0  0  0  0  0
    5.3988   -2.6032    0.0000 C   0  0  0  0  0  4  0  0  0  0  0  0
    3.8482   -2.5919    0.0000 C   0  0  0  0  0  4  0  0  0  0  0  0
    3.1691   -3.7237    0.0000 C   0  0  0  0  0  4  0  0  0  0  0  0
    1.9807   -3.7011    0.0000 C   0  0  0  0  0  4  0  0  0  0  0  0
    1.3129   -2.5692    0.0000 C   0  0  0  0  0  4  0  0  0  0  0  0
    1.9581   -1.4261    0.0000 C   0  0  0  0  0  4  0  0  0  0  0  0
    3.2031   -1.4374    0.0000 C   0  0  0  0  0  4  0  0  0  0  0  0
    0.0000   -2.5806    0.0000 O   0  0  0  0  0  2  0  0  0  0  0  0
    5.9874   -1.1431    0.0000 C   0  0  0  0  0  4  0  0  0  0  0  0
    5.3309    0.0000    0.0000 C   0  0  0  0  0  4  0  0  0  0  0  0
    7.3682   -3.7463    0.0000 C   0  0  0  0  0  4  0  0  0  0  0  0
    8.0360   -2.6032    0.0000 C   0  0  0  0  0  4  0  0  0  0  0  0
    9.3489   -2.6145    0.0000 C   0  0  0  0  0  4  0  0  0  0  0  0
   10.0053   -3.7463    0.0000 C   0  0  0  0  0  4  0  0  0  0  0  0
    9.3376   -4.8895    0.0000 C   0  0  0  0  0  4  0  0  0  0  0  0
    8.0246   -4.8895    0.0000 C   0  0  0  0  0  4  0  0  0  0  0  0
   11.3183   -3.7577    0.0000 O   0  0  0  0  0  2  0  0  0  0  0  0
    5.3988   -4.8782    0.0000 C   0  0  0  0  0  4  0  0  0  0  0  0
    6.0553   -6.0213    0.0000 C   0  0  0  0  0  4  0  0  0  0  0  0
  1  2  2  0  0  0  0 
  1 12  1  0  0  0  0 
  1 19  1  0  0  0  0 
  2  3  1  0  0  0  0 
  2 10  1  0  0  0  0 
  3  4  1  0  0  0  0 
  3  8  2  0  0  0  0 
  4  5  2  0  0  0  0 
  5  6  1  0  0  0  0 
  6  7  2  0  0  0  0 
  6  9  1  0  0  0  0 
  7  8  1  0  0  0  0 
 10 11  1  0  0  0  0 
 12 13  2  0  0  0  0 
 12 17  1  0  0  0  0 
 13 14  1  0  0  0  0 
 14 15  2  0  0  0  0 
 15 16  1  0  0  0  0 
 15 18  1  0  0  0  0 
 16 17  2  0  0  0  0 
 19 20  1  0  0  0  0 
M  END
> <CDK Fingerprint>
QAAAEAAAAAAAABIAAAAAAAgAAIAEAAAAAAAAAAgAAAgAAmEAQAAAQAAAAAAgABAgAAAgAAAQAEAAAADAAAAAAAQIAAQAEBAEAAAAAgAAgAAQAABQAAgAAIAAAAACgAAggAIIQCAoAAAAFAJAEAwAAAAcAIABCAQAAAQgAAAAAA==

> <ActivityOutcome_CPDBAS_Rat>
active

> <TD50_Rat_mmol>
0.000831

$$$$

  CDK     0721101958

  8  7  0  0  0  0  0  0  0  0999 V2000
    3.4577    0.0000    0.0000 S   0  0  0  0  0  2  0  0  0  0  0  0
    3.4577   -1.3312    0.0000 C   0  0  0  0  0  4  0  0  0  0  0  0
    4.6103   -1.9939    0.0000 N   0  0  0  0  0  3  0  0  0  0  0  0
    5.7628   -1.3312    0.0000 C   0  0  0  0  0  4  0  0  0  0  0  0
    5.7628    0.0000    0.0000 C   0  0  0  0  0  4  0  0  0  0  0  0
    2.3051   -1.9939    0.0000 N   0  0  0  0  0  3  0  0  0  0  0  0
    1.1526   -1.3312    0.0000 C   0  0  0  0  0  4  0  0  0  0  0  0
    0.0000   -1.9939    0.0000 C   0  0  0  0  0  4  0  0  0  0  0  0
  1  2  2  0  0  0  0 
  2  3  1  0  0  0  0 
  2  6  1  0  0  0  0 
  3  4  1  0  0  0  0 
  4  5  1  0  0  0  0 
  6  7  1  0  0  0  0 
  7  8  1  0  0  0  0 
M  END
> <CDK Fingerprint>
AhAASAAAAAAAAAAAAAAAAAAAAAAAAAAAAAABYAAAAIAAAAAAAAgAACAAAAABAAAAAAAAAIAAAAAAAAAAAAAAAQAAAAAAAACAAAAAAAAAAAAAEAAAAAAAAAAAAAAAAAAAAAAAAAAAAAAAAEAAAAAAAAAAAQAAAgAA

> <ActivityOutcome_CPDBAS_Rat>
active

> <TD50_Rat_mmol>
0.182

$$$$

  CDK     0721101958

 12 11  0  0  0  0  0  0  0  0999 V2000
    2.9723   -3.4561    0.0000 N   0  0  0  0  0  3  0  0  0  0  0  0
    2.3018   -2.3018    0.0000 C   0  0  0  0  0  4  0  0  0  0  0  0
    3.4561   -1.6382    0.0000 C   0  0  0  0  0  4  0  0  0  0  0  0
    4.6104   -2.3018    0.0000 C   0  0  0  0  0  4  0  0  0  0  0  0
    5.7579   -1.6382    0.0000 C   0  0  0  0  0  4  0  0  0  0  0  0
    6.9122   -2.3018    0.0000 N   0  0  0  0  0  3  0  0  0  0  0  0
    1.1543   -2.9723    0.0000 C   0  0  0  0  0  4  0  0  0  0  0  0
    1.1543   -4.2994    0.0000 O   0  0  0  0  0  2  0  0  0  0  0  0
    0.0000   -2.3018    0.0000 O   0  0  0  0  0  2  0  0  0  0  0  0
    1.6382   -1.1543    0.0000 C   0  0  0  0  0  4  0  0  0  0  0  0
    0.3110   -1.1543    0.0000 F   0  0  0  0  0  1  0  0  0  0  0  0
    2.3018    0.0000    0.0000 F   0  0  0  0  0  1  0  0  0  0  0  0
  1  2  1  0  0  0  0 
  2  3  1  0  0  0  0 
  2  7  1  0  0  0  0 
  2 10  1  0  0  0  0 
  3  4  1  0  0  0  0 
  4  5  1  0  0  0  0 
  5  6  1  0  0  0  0 
  7  8  2  0  0  0  0 
  7  9  1  0  0  0  0 
 10 11  1  0  0  0  0 
 10 12  1  0  0  0  0 
M  END
> <CDK Fingerprint>
AgAAAgABAAAAAAAAAAAAAAAAAAAAAAAAMQEAYAAAAAAgAAAAAAAAGCAAIAAAAAAAAAAAMEAgAAAAAAAAAAAARAAAAAAAAAAAAAAAAAAAAAAAADAAAAAAAAAAQAAAARAAAAAEAAAQAAGAAAAAAFAYAAgAAAACAgAA

> <ActivityOutcome_CPDBAS_Rat>
inactive

$$$$

  CDK     0721101958

 16 18  0  0  0  0  0  0  0  0999 V2000
    5.9373   -2.6599    0.0000 C   0  0  0  0  0  4  0  0  0  0  0  0
    4.7855   -1.9949    0.0000 C   0  0  0  0  0  4  0  0  0  0  0  0
    4.7855   -0.6650    0.0000 C   0  0  0  0  0  4  0  0  0  0  0  0
    5.9373    0.0000    0.0000 C   0  0  0  0  0  4  0  0  0  0  0  0
    7.0892   -0.6650    0.0000 C   0  0  0  0  0  4  0  0  0  0  0  0
    7.0892   -1.9949    0.0000 C   0  0  0  0  0  4  0  0  0  0  0  0
    8.2410   -2.6599    0.0000 O   0  0  0  0  0  2  0  0  0  0  0  0
    9.3928   -1.9949    0.0000 C   0  0  0  0  0  4  0  0  0  0  0  0
   10.5447   -2.6599    0.0000 C   0  0  0  0  0  4  0  0  0  0  0  0
   11.8746   -2.6599    0.0000 C   0  0  0  0  0  4  0  0  0  0  0  0
   11.2097   -3.8118    0.0000 O   0  0  0  0  0  2  0  0  0  0  0  0
    3.6336   -2.6599    0.0000 O   0  0  0  0  0  2  0  0  0  0  0  0
    2.4818   -1.9949    0.0000 C   0  0  0  0  0  4  0  0  0  0  0  0
    1.3300   -2.6599    0.0000 C   0  0  0  0  0  4  0  0  0  0  0  0
    0.6650   -3.8118    0.0000 C   0  0  0  0  0  4  0  0  0  0  0  0
    0.0000   -2.6599    0.0000 O   0  0  0  0  0  2  0  0  0  0  0  0
  1  2  2  0  0  0  0 
  1  6  1  0  0  0  0 
  2  3  1  0  0  0  0 
  2 12  1  0  0  0  0 
  3  4  2  0  0  0  0 
  4  5  1  0  0  0  0 
  5  6  2  0  0  0  0 
  6  7  1  0  0  0  0 
  7  8  1  0  0  0  0 
  8  9  1  0  0  0  0 
  9 10  1  0  0  0  0 
  9 11  1  0  0  0  0 
 10 11  1  0  0  0  0 
 12 13  1  0  0  0  0 
 13 14  1  0  0  0  0 
 14 15  1  0  0  0  0 
 14 16  1  0  0  0  0 
 15 16  1  0  0  0  0 
M  END
> <CDK Fingerprint>
BAAAAAAABAAAAIACABAABAAAAAAAAAAAgAAAAQAAAEACCAJhAAACAAgAAEgAAAAYIAIQIACAAABEAAQIQAAAAAADEAAAgABAARAgBCAAAIAAAAACAAAAQIAAEAAIAEIAIAIAAAAgICAABAACCAAAAAAIAACAACAAAAAAAAAiAAA=

> <ActivityOutcome_CPDBAS_Rat>
active

> <TD50_Rat_mmol>
0.017

$$$$

  CDK     0721101958

 17 18  0  0  0  0  0  0  0  0999 V2000
    1.9990   -3.8920    0.0000 O   0  0  0  0  0  2  0  0  0  0  0  0
    5.3769   -1.9501    0.0000 N   0  0  0  0  0  3  0  0  0  0  0  0
    5.3769   -3.2474    0.0000 C   0  0  0  0  0  4  0  0  0  0  0  0
    4.2510   -1.2973    0.0000 C   0  0  0  0  0  4  0  0  0  0  0  0
    4.2510   -3.8920    0.0000 N   0  0  0  0  0  3  0  0  0  0  0  0
    3.1250   -1.9501    0.0000 N   0  0  0  0  0  3  0  0  0  0  0  0
    3.1250   -3.2474    0.0000 C   0  0  0  0  0  4  0  0  0  0  0  0
    4.2510    0.0000    0.0000 N   0  0  0  0  0  3  0  0  0  0  0  0
    4.6018   -8.1592    0.0000 O   0  0  0  0  0  2  0  0  0  0  0  0
    1.8114   -8.1592    0.0000 O   0  0  0  0  0  2  0  0  0  0  0  0
    2.1704   -5.8991    0.0000 C   0  0  0  0  0  4  0  0  0  0  0  0
    3.2066   -5.1485    0.0000 O   0  0  0  0  0  2  0  0  0  0  0  0
    2.5702   -7.1230    0.0000 C   0  0  0  0  0  4  0  0  0  0  0  0
    4.2510   -5.8991    0.0000 C   0  0  0  0  0  4  0  0  0  0  0  0
    3.8512   -7.1230    0.0000 C   0  0  0  0  0  4  0  0  0  0  0  0
    0.9546   -5.5075    0.0000 C   0  0  0  0  0  4  0  0  0  0  0  0
    0.0000   -6.3642    0.0000 O   0  0  0  0  0  2  0  0  0  0  0  0
  1  7  2  0  0  0  0 
  2  3  1  0  0  0  0 
  2  4  2  0  0  0  0 
  3  5  1  0  0  0  0 
  4  6  1  0  0  0  0 
  4  8  1  0  0  0  0 
  5  7  1  0  0  0  0 
 14  5  1  1  0  0  0 
  6  7  1  0  0  0  0 
 15  9  1  6  0  0  0 
 13 10  1  6  0  0  0 
 11 12  1  0  0  0  0 
 11 13  1  0  0  0  0 
 11 16  1  1  0  0  0 
 12 14  1  0  0  0  0 
 13 15  1  0  0  0  0 
 14 15  1  0  0  0  0 
 16 17  1  0  0  0  0 
M  END
> <CDK Fingerprint>
BMAGAYAKUAAiEADCAAkgAJAhEBAAAFERgAACAAACAAAAA9hhBIAI4AAAgASJJAFcJEJigAIhgCAAAABAwiMQAcAIAUCIAABBAAAAAAAAAJOLAURCJexAQFQIERQAAMoAgAJgAAADARAAAFAgABAAgSAAUAAAYHQMAAgIbCgKACA=

> <ActivityOutcome_CPDBAS_Rat>
inactive

$$$$

  CDK     0721101958

 19 21  0  0  0  0  0  0  0  0999 V2000
    0.6604   -4.6025    0.0000 C   0  0  0  0  0  4  0  0  0  0  0  0
    0.0000   -3.4467    0.0000 C   0  0  0  0  0  4  0  0  0  0  0  0
    0.6604   -2.3012    0.0000 C   0  0  0  0  0  4  0  0  0  0  0  0
    1.9917   -2.3012    0.0000 C   0  0  0  0  0  4  0  0  0  0  0  0
    2.6624   -3.4467    0.0000 C   0  0  0  0  0  4  0  0  0  0  0  0
    1.9917   -4.6025    0.0000 C   0  0  0  0  0  4  0  0  0  0  0  0
    3.9936   -3.4467    0.0000 N   0  0  0  0  0  3  0  0  0  0  0  0
    4.6541   -2.3012    0.0000 C   0  0  0  0  0  4  0  0  0  0  0  0
    3.9936   -1.1455    0.0000 N   0  0  0  0  0  3  0  0  0  0  0  0
    2.6624   -1.1455    0.0000 C   0  0  0  0  0  4  0  0  0  0  0  0
    1.9917    0.0000    0.0000 O   0  0  0  0  0  2  0  0  0  0  0  0
    5.9853   -2.3012    0.0000 C   0  0  0  0  0  4  0  0  0  0  0  0
    6.7696   -1.2177    0.0000 C   0  0  0  0  0  4  0  0  0  0  0  0
    8.0285   -1.6305    0.0000 C   0  0  0  0  0  4  0  0  0  0  0  0
    8.0285   -2.9617    0.0000 C   0  0  0  0  0  4  0  0  0  0  0  0
    6.7696   -3.3745    0.0000 S   0  0  0  0  0  2  0  0  0  0  0  0
    9.1018   -3.7460    0.0000 N   0  0  0  0  0  4  0  0  0  0  0  0
   10.3195   -3.1990    0.0000 O   0  0  0  0  0  1  0  0  0  0  0  0
    8.9676   -5.0669    0.0000 O   0  0  0  0  0  2  0  0  0  0  0  0
  1  2  2  0  0  0  0 
  1  6  1  0  0  0  0 
  2  3  1  0  0  0  0 
  3  4  2  0  0  0  0 
  4  5  1  0  0  0  0 
  4 10  1  0  0  0  0 
  5  6  2  0  0  0  0 
  5  7  1  0  0  0  0 
  7  8  1  0  0  0  0 
  8  9  1  0  0  0  0 
  8 12  1  0  0  0  0 
  9 10  1  0  0  0  0 
 10 11  2  0  0  0  0 
 12 13  2  0  0  0  0 
 12 16  1  0  0  0  0 
 13 14  1  0  0  0  0 
 14 15  2  0  0  0  0 
 15 16  1  0  0  0  0 
 15 17  1  0  0  0  0 
 17 18  1  0  0  0  0 
 17 19  2  0  0  0  0 
M  CHG  1  17   1
M  CHG  1  18  -1
M  END
> <CDK Fingerprint>
ICA0SRzCjADiFIRMAkE4AgAqgEAAAZBZgQAhQYBEQCdSCEFoQQTAlCAEIAWgRAHAYUPURAIiAgVACYAAlAQAZeFOACgABAQFAgkAAgCAgtQABAIEJAAEEhOAAm4IEMUA4AhEIERhAACCACAmQIAAAUAAQmCIUkhxIMCClFJOEAA=

> <ActivityOutcome_CPDBAS_Rat>
active

> <TD50_Rat_mmol>
0.00556

$$$$

  CDK     0721101958

  8  8  0  0  0  0  0  0  0  0999 V2000
    0.6656   -2.3042    0.0000 C   0  0  0  0  0  4  0  0  0  0  0  0
    0.0000   -1.1544    0.0000 C   0  0  0  0  0  4  0  0  0  0  0  0
    0.6656    0.0000    0.0000 C   0  0  0  0  0  4  0  0  0  0  0  0
    1.9969    0.0000    0.0000 C   0  0  0  0  0  4  0  0  0  0  0  0
    2.6579   -1.1544    0.0000 N   0  0  0  0  0  3  0  0  0  0  0  0
    1.9969   -2.3042    0.0000 O   0  0  0  0  0  2  0  0  0  0  0  0
    3.9892   -1.1544    0.0000 N   0  0  0  0  0  3  0  0  0  0  0  0
    4.6549   -2.3042    0.0000 O   0  0  0  0  0  2  0  0  0  0  0  0
  1  2  1  0  0  0  0 
  1  6  1  0  0  0  0 
  2  3  2  0  0  0  0 
  3  4  1  0  0  0  0 
  4  5  1  0  0  0  0 
  5  6  1  0  0  0  0 
  5  7  1  0  0  0  0 
  7  8  2  0  0  0  0 
M  END
> <CDK Fingerprint>
QAABAAACACoEAAoAAIBAAAAAAAAAAAAAIAIAAgAABAMAAGQAAAAAAAEAAAAAAAAwBAEABxARAEAAEAAAAAAAAQAAAAAAIAAAAAAAAAAAAAAAEAAAAAAAAAAQAAAAAAAAAAQgBAAICAACAAAABAAAQCAAAAQASAAAAAAAAAMAIA==

> <ActivityOutcome_CPDBAS_Rat>
active

> <TD50_Rat_mmol>
0.794

$$$$

  CDK     0721101958

 11 12  0  0  0  0  0  0  0  0999 V2000
    0.0000   -2.6606    0.0000 O   0  0  0  0  0  2  0  0  0  0  0  0
    1.1518   -1.9983    0.0000 C   0  0  0  0  0  4  0  0  0  0  0  0
    2.3036   -2.6606    0.0000 O   0  0  0  0  0  2  0  0  0  0  0  0
    3.4554   -1.9983    0.0000 C   0  0  0  0  0  4  0  0  0  0  0  0
    3.4554   -0.6680    0.0000 C   0  0  0  0  0  4  0  0  0  0  0  0
    4.6071    0.0000    0.0000 C   0  0  0  0  0  4  0  0  0  0  0  0
    5.7589   -0.6680    0.0000 C   0  0  0  0  0  4  0  0  0  0  0  0
    5.7589   -1.9983    0.0000 C   0  0  0  0  0  4  0  0  0  0  0  0
    4.6071   -2.6606    0.0000 C   0  0  0  0  0  4  0  0  0  0  0  0
    2.3036    0.0000    0.0000 C   0  0  0  0  0  4  0  0  0  0  0  0
    1.1518   -0.6680    0.0000 C   0  0  0  0  0  4  0  0  0  0  0  0
  1  2  2  0  0  0  0 
  2  3  1  0  0  0  0 
  2 11  1  0  0  0  0 
  3  4  1  0  0  0  0 
  4  5  2  0  0  0  0 
  4  9  1  0  0  0  0 
  5  6  1  0  0  0  0 
  5 10  1  0  0  0  0 
  6  7  2  0  0  0  0 
  7  8  1  0  0  0  0 
  8  9  2  0  0  0  0 
 10 11  1  0  0  0  0 
M  END
> <CDK Fingerprint>
AhIAEAAEAAgAAAAAAACgAAAAgAAAQEgIAmEQAAAACAAACEAAABAgAgAgAIAIAEAABChAAAACABYYJAAAAAEMACBEYAAAgAABAEAAAABAAIAQCAIAgAggIEQAQKAgIAAEAAZBEAQBAAAcAIBSEAQDAUAAACAAAA==

> <ActivityOutcome_CPDBAS_Rat>
active

> <TD50_Rat_mmol>
20

$$$$

  CDK     0721101958

 12 13  0  0  0  0  0  0  0  0999 V2000
    7.8079   -2.6625    0.0000 C   0  0  0  0  0  4  0  0  0  0  0  0
    6.6523   -1.9988    0.0000 C   0  0  0  0  0  4  0  0  0  0  0  0
    5.5046   -2.6625    0.0000 C   0  0  0  0  0  4  0  0  0  0  0  0
    4.3490   -1.9988    0.0000 C   0  0  0  0  0  4  0  0  0  0  0  0
    3.2012   -2.6625    0.0000 C   0  0  0  0  0  4  0  0  0  0  0  0
    2.0457   -1.9988    0.0000 C   0  0  0  0  0  4  0  0  0  0  0  0
    2.0457   -0.6637    0.0000 C   0  0  0  0  0  4  0  0  0  0  0  0
    3.2012    0.0000    0.0000 C   0  0  0  0  0  4  0  0  0  0  0  0
    4.3490   -0.6637    0.0000 C   0  0  0  0  0  4  0  0  0  0  0  0
    0.7808   -0.2577    0.0000 O   0  0  0  0  0  2  0  0  0  0  0  0
    0.0000   -1.3351    0.0000 C   0  0  0  0  0  4  0  0  0  0  0  0
    0.7808   -2.4048    0.0000 O   0  0  0  0  0  2  0  0  0  0  0  0
  1  2  1  0  0  0  0 
  2  3  1  0  0  0  0 
  3  4  1  0  0  0  0 
  4  5  2  0  0  0  0 
  4  9  1  0  0  0  0 
  5  6  1  0  0  0  0 
  6  7  2  0  0  0  0 
  6 12  1  0  0  0  0 
  7  8  1  0  0  0  0 
  7 10  1  0  0  0  0 
  8  9  2  0  0  0  0 
 10 11  1  0  0  0  0 
 11 12  1  0  0  0  0 
M  END
> <CDK Fingerprint>
BEAIABIAAAAAAAgAAggAAACAAAIAQAACCAgkAmEAAASAgAAIAAAgAAAgBOAgAAAAAEAAICBAQAAAAAYYAAAIAEIEAAIEAAAAgAAQCAAAAAAAAJABAAACgAAgAALAQCAgYAIQAAJIGAQAAAAcAIAAIAQAAKABACAIAA==

> <ActivityOutcome_CPDBAS_Rat>
active

> <TD50_Rat_mmol>
0.871

$$$$

  CDK     0721101958

 30 32  0  0  0  0  0  0  0  0999 V2000
    4.4965   -3.9839    0.0000 C   0  0  0  0  0  4  0  0  0  0  0  0
    4.4965   -5.2653    0.0000 C   0  0  0  0  0  4  0  0  0  0  0  0
    3.3899   -3.2967    0.0000 C   0  0  0  0  0  4  0  0  0  0  0  0
    4.4965   -2.6793    0.0000 C   0  0  0  0  0  4  0  0  0  0  0  0
    3.3899   -5.8594    0.0000 C   0  0  0  0  0  4  0  0  0  0  0  0
    2.2832   -3.9839    0.0000 C   0  0  0  0  0  4  0  0  0  0  0  0
    3.3899   -7.1641    0.0000 C   0  0  0  0  0  4  0  0  0  0  0  0
    2.2832   -5.2187    0.0000 C   0  0  0  0  0  4  0  0  0  0  0  0
    2.2832   -7.7815    0.0000 C   0  0  0  0  0  4  0  0  0  0  0  0
    2.2832   -9.0629    0.0000 C   0  0  0  0  0  4  0  0  0  0  0  0
    3.3899   -9.7385    0.0000 C   0  0  0  0  0  4  0  0  0  0  0  0
    1.1532   -9.7385    0.0000 C   0  0  0  0  0  4  0  0  0  0  0  0
    3.3899  -11.0549    0.0000 C   0  0  0  0  0  4  0  0  0  0  0  0
    4.5431   -9.0629    0.0000 C   0  0  0  0  0  4  0  0  0  0  0  0
    1.1532  -11.0549    0.0000 C   0  0  0  0  0  4  0  0  0  0  0  0
    2.2832  -11.6490    0.0000 C   0  0  0  0  0  4  0  0  0  0  0  0
    0.0000  -11.6490    0.0000 O   0  0  0  0  0  2  0  0  0  0  0  0
    6.7215   -3.9839    0.0000 C   0  0  0  0  0  4  0  0  0  0  0  0
    6.7215   -5.2653    0.0000 C   0  0  0  0  0  4  0  0  0  0  0  0
    5.6265   -3.3316    0.0000 C   0  0  0  0  0  4  0  0  0  0  0  0
    5.6265   -1.9803    0.0000 C   0  0  0  0  0  4  0  0  0  0  0  0
    6.7448   -1.3163    0.0000 C   0  0  0  0  0  4  0  0  0  0  0  0
    4.4383   -1.2814    0.0000 C   0  0  0  0  0  4  0  0  0  0  0  0
    7.8514   -1.9803    0.0000 C   0  0  0  0  0  4  0  0  0  0  0  0
    9.0280   -1.3163    0.0000 C   0  0  0  0  0  4  0  0  0  0  0  0
   10.1696   -2.0269    0.0000 C   0  0  0  0  0  4  0  0  0  0  0  0
    9.0163    0.0000    0.0000 O   0  0  0  0  0  2  0  0  0  0  0  0
   11.3112   -2.6676    0.0000 C   0  0  0  0  0  4  0  0  0  0  0  0
    9.5172   -3.1685    0.0000 C   0  0  0  0  0  4  0  0  0  0  0  0
   10.8335   -0.8504    0.0000 O   0  0  0  0  0  2  0  0  0  0  0  0
  1  3  1  0  0  0  0 
  1  4  1  1  0  0  0 
  1 20  1  0  0  0  0 
  1  2  1  0  0  0  0 
  2  5  1  0  0  0  0 
  2 19  1  0  0  0  0 
  3  6  1  0  0  0  0 
  5  7  2  0  0  0  0 
  5  8  1  0  0  0  0 
  6  8  1  0  0  0  0 
  7  9  1  0  0  0  0 
  9 10  2  0  0  0  0 
 10 11  1  0  0  0  0 
 10 12  1  0  0  0  0 
 11 13  1  0  0  0  0 
 11 14  2  0  0  0  0 
 12 15  1  0  0  0  0 
 13 16  1  0  0  0  0 
 15 17  1  6  0  0  0 
 15 16  1  0  0  0  0 
 18 19  1  0  0  0  0 
 18 20  1  0  0  0  0 
 20 21  1  1  0  0  0 
 21 22  1  0  0  0  0 
 21 23  1  6  0  0  0 
 22 24  1  0  0  0  0 
 24 25  1  0  0  0  0 
 25 26  1  0  0  0  0 
 25 27  1  1  0  0  0 
 26 28  1  0  0  0  0 
 26 29  1  0  0  0  0 
 26 30  1  0  0  0  0 
M  END
> <CDK Fingerprint>
QAAACAAAAAAgAAIBAAQAAAAAAgAEAABAAAAEAAAAAABRCGAAAAAAAAAAACAQABggACIACAAQkAQAABBAQAQAEAEAIAQAAAAAAABEAiABAABgAAABAAAUAAAQAAAJAAAAAAAAAABAAAAAAAABEAAAAAAAAACAGAAAEAhAAAAAIA==

> <ActivityOutcome_CPDBAS_Rat>
inactive

$$$$

  CDK     0721101958

  9  9  0  0  0  0  0  0  0  0999 V2000
    3.4264    0.0000    0.0000 C   0  0  0  0  0  4  0  0  0  0  0  0
    3.2878   -1.3253    0.0000 C   0  0  0  0  0  4  0  0  0  0  0  0
    3.4264   -2.6460    0.0000 C   0  0  0  0  0  4  0  0  0  0  0  0
    4.5808   -3.3109    0.0000 O   0  0  0  0  0  2  0  0  0  0  0  0
    2.2119   -3.1862    0.0000 N   0  0  0  0  0  3  0  0  0  0  0  0
    1.3207   -2.1980    0.0000 C   0  0  0  0  0  4  0  0  0  0  0  0
    0.0000   -2.3366    0.0000 O   0  0  0  0  0  2  0  0  0  0  0  0
    1.9856   -1.0482    0.0000 O   0  0  0  0  0  2  0  0  0  0  0  0
    4.6177   -1.3253    0.0000 C   0  0  0  0  0  4  0  0  0  0  0  0
  1  2  1  0  0  0  0 
  2  3  1  0  0  0  0 
  2  8  1  0  0  0  0 
  2  9  1  0  0  0  0 
  3  4  2  0  0  0  0 
  3  5  1  0  0  0  0 
  5  6  1  0  0  0  0 
  6  7  2  0  0  0  0 
  6  8  1  0  0  0  0 
M  END
> <CDK Fingerprint>
CAOAEAAFAgAAAgABAAAAAAAAAAAAAIAAAACAAAAAAAIAYAAAAAAAAAAAAAABSCACAAACIAAAAAAAAMAAAACAAAAACAAAAAAAAAAAAACBAAAAQCAIAABAABEAAAAAAAAAQAAAAAABAABAAAAAAAGAAAAAAFAAAAAAAAAAAgAA

> <ActivityOutcome_CPDBAS_Rat>
inactive

$$$$

  CDK     0721101958

 12 11  0  0  0  0  0  0  0  0999 V2000
    3.3242   -1.9909    0.0000 S   0  0  0  0  0  2  0  0  0  0  0  0
    1.9909   -1.9909    0.0000 P   0  0  0  0  0  5  0  0  0  0  0  0
    1.9909   -3.3242    0.0000 S   0  0  0  0  0  2  0  0  0  0  0  0
    3.1448   -3.9878    0.0000 C   0  0  0  0  0  4  0  0  0  0  0  0
    3.1448   -5.3151    0.0000 C   0  0  0  0  0  4  0  0  0  0  0  0
    1.9909   -5.9788    0.0000 O   0  0  0  0  0  2  0  0  0  0  0  0
    4.2928   -5.9788    0.0000 N   0  0  0  0  0  3  0  0  0  0  0  0
    5.4467   -5.3151    0.0000 C   0  0  0  0  0  4  0  0  0  0  0  0
    0.6636   -1.9909    0.0000 O   0  0  0  0  0  2  0  0  0  0  0  0
    0.0000   -3.1448    0.0000 C   0  0  0  0  0  4  0  0  0  0  0  0
    1.9909   -0.6636    0.0000 O   0  0  0  0  0  2  0  0  0  0  0  0
    3.1448    0.0000    0.0000 C   0  0  0  0  0  4  0  0  0  0  0  0
  1  2  2  0  0  0  0 
  2  3  1  0  0  0  0 
  2  9  1  0  0  0  0 
  2 11  1  0  0  0  0 
  3  4  1  0  0  0  0 
  4  5  1  0  0  0  0 
  5  6  2  0  0  0  0 
  5  7  1  0  0  0  0 
  7  8  1  0  0  0  0 
  9 10  1  0  0  0  0 
 11 12  1  0  0  0  0 
M  END
> <CDK Fingerprint>
AgAIEgAAAAAAAAAAAAAACAAAAAEAAAAAAAIBYAACAAAIAAAAEAEAgGAAAAAAAQAAAAAAAIAAAACAAwAAAAAAAAAAAAAAAACQAABAAoAYIAACBQACAAAAAABARAgAAAAIAmAAAAACAAAAIAAAAFAAAAAAAAAAAgAB

> <ActivityOutcome_CPDBAS_Rat>
inactive

$$$$

  CDK     0721101958

 12 12  0  0  0  0  0  0  0  0999 V2000
    2.3013    0.0000    0.0000 C   0  0  0  0  0  4  0  0  0  0  0  0
    2.3013   -1.3269    0.0000 C   0  0  0  0  0  4  0  0  0  0  0  0
    3.4554   -1.9903    0.0000 C   0  0  0  0  0  4  0  0  0  0  0  0
    3.4554   -3.3241    0.0000 C   0  0  0  0  0  4  0  0  0  0  0  0
    2.3013   -3.9876    0.0000 O   0  0  0  0  0  2  0  0  0  0  0  0
    1.1541   -3.3241    0.0000 C   0  0  0  0  0  4  0  0  0  0  0  0
    1.1541   -1.9903    0.0000 O   0  0  0  0  0  2  0  0  0  0  0  0
    0.0000   -3.9876    0.0000 C   0  0  0  0  0  4  0  0  0  0  0  0
    4.6095   -3.9876    0.0000 O   0  0  0  0  0  2  0  0  0  0  0  0
    5.7567   -3.3241    0.0000 C   0  0  0  0  0  4  0  0  0  0  0  0
    5.7567   -1.9903    0.0000 O   0  0  0  0  0  2  0  0  0  0  0  0
    6.9108   -3.9876    0.0000 C   0  0  0  0  0  4  0  0  0  0  0  0
  1  2  1  0  0  0  0 
  2  3  1  0  0  0  0 
  2  7  1  0  0  0  0 
  3  4  1  0  0  0  0 
  4  5  1  0  0  0  0 
  4  9  1  0  0  0  0 
  5  6  1  0  0  0  0 
  6  7  1  0  0  0  0 
  6  8  1  0  0  0  0 
  9 10  1  0  0  0  0 
 10 11  2  0  0  0  0 
 10 12  1  0  0  0  0 
M  END
> <CDK Fingerprint>
AICAgAAAAAAAAAAEg8AEAAAQIAAAAAAAAIAAAACAAAAAAABEYACAAAAAAAAAAAAAcCQCAAAQAAAAAAAAAEAAAEAAAAAAAAAAQAAAAABAAAAQAAEACQAAAEAEQBEAAAACAAAAQGUAAAAAAAEAAAAQAAAAAAAAAFKwRAAAAAAAAAAA

> <ActivityOutcome_CPDBAS_Rat>
active

> <TD50_Rat_mmol>
4.11

$$$$

  CDK     0721101958

 12 12  0  0  0  0  0  0  0  0999 V2000
    2.3013    0.0000    0.0000 C   0  0  0  0  0  4  0  0  0  0  0  0
    2.3013   -1.3269    0.0000 C   0  0  0  0  0  4  0  0  0  0  0  0
    3.4554   -1.9903    0.0000 C   0  0  0  0  0  4  0  0  0  0  0  0
    3.4554   -3.3241    0.0000 C   0  0  0  0  0  4  0  0  0  0  0  0
    2.3013   -3.9876    0.0000 O   0  0  0  0  0  2  0  0  0  0  0  0
    1.1541   -3.3241    0.0000 C   0  0  0  0  0  4  0  0  0  0  0  0
    1.1541   -1.9903    0.0000 O   0  0  0  0  0  2  0  0  0  0  0  0
    0.0000   -3.9876    0.0000 C   0  0  0  0  0  4  0  0  0  0  0  0
    4.6095   -3.9876    0.0000 O   0  0  0  0  0  2  0  0  0  0  0  0
    5.7567   -3.3241    0.0000 C   0  0  0  0  0  4  0  0  0  0  0  0
    5.7567   -1.9903    0.0000 O   0  0  0  0  0  2  0  0  0  0  0  0
    6.9108   -3.9876    0.0000 C   0  0  0  0  0  4  0  0  0  0  0  0
  1  2  1  0  0  0  0 
  2  3  1  0  0  0  0 
  2  7  1  0  0  0  0 
  3  4  1  0  0  0  0 
  4  5  1  0  0  0  0 
  4  9  1  0  0  0  0 
  5  6  1  0  0  0  0 
  6  7  1  0  0  0  0 
  6  8  1  0  0  0  0 
  9 10  1  0  0  0  0 
 10 11  2  0  0  0  0 
 10 12  1  0  0  0  0 
M  END
> <CDK Fingerprint>
AICAgAAAAAAAAAAEg8AEAAAQIAAAAAAAAIAAAACAAAAAAABEYACAAAAAAAAAAAAAcCQCAAAQAAAAAAAAAEAAAEAAAAAAAAAAQAAAAABAAAAQAAEACQAAAEAEQBEAAAACAAAAQGUAAAAAAAEAAAAQAAAAAAAAAFKwRAAAAAAAAAAA

> <ActivityOutcome_CPDBAS_Rat>
inactive

$$$$

  CDK     0721101958

 19 20  0  0  0  0  0  0  0  0999 V2000
    9.2163   -6.6542    0.0000 N   0  0  0  0  0  3  0  0  0  0  0  0
    8.0643   -5.9906    0.0000 C   0  0  0  0  0  4  0  0  0  0  0  0
    8.0643   -4.6542    0.0000 C   0  0  0  0  0  4  0  0  0  0  0  0
    6.9122   -6.6542    0.0000 C   0  0  0  0  0  4  0  0  0  0  0  0
    6.9122   -3.9907    0.0000 C   0  0  0  0  0  4  0  0  0  0  0  0
    5.7602   -5.9906    0.0000 C   0  0  0  0  0  4  0  0  0  0  0  0
    5.7602   -4.6542    0.0000 C   0  0  0  0  0  4  0  0  0  0  0  0
    4.6081   -3.9907    0.0000 C   0  0  0  0  0  4  0  0  0  0  0  0
    3.4561   -4.6634    0.0000 C   0  0  0  0  0  4  0  0  0  0  0  0
    0.0092   -3.9814    0.0000 C   0  0  0  0  0  4  0  0  0  0  0  0
    0.0000   -2.6635    0.0000 C   0  0  0  0  0  4  0  0  0  0  0  0
    1.1520   -1.9999    0.0000 C   0  0  0  0  0  4  0  0  0  0  0  0
    2.3041   -2.6635    0.0000 C   0  0  0  0  0  4  0  0  0  0  0  0
    2.3041   -3.9999    0.0000 C   0  0  0  0  0  4  0  0  0  0  0  0
    1.1613   -4.6450    0.0000 C   0  0  0  0  0  4  0  0  0  0  0  0
    1.1613   -5.9814    0.0000 O   0  0  0  0  0  2  0  0  0  0  0  0
    0.0092   -6.6450    0.0000 C   0  0  0  0  0  4  0  0  0  0  0  0
    1.1520   -0.6636    0.0000 O   0  0  0  0  0  2  0  0  0  0  0  0
    0.0000    0.0000    0.0000 C   0  0  0  0  0  4  0  0  0  0  0  0
  1  2  1  0  0  0  0 
  2  3  2  0  0  0  0 
  2  4  1  0  0  0  0 
  3  5  1  0  0  0  0 
  4  6  2  0  0  0  0 
  5  7  2  0  0  0  0 
  6  7  1  0  0  0  0 
  7  8  1  0  0  0  0 
  8  9  2  0  0  0  0 
  9 14  1  0  0  0  0 
 10 15  2  0  0  0  0 
 10 11  1  0  0  0  0 
 11 12  2  0  0  0  0 
 12 13  1  0  0  0  0 
 12 18  1  0  0  0  0 
 13 14  2  0  0  0  0 
 14 15  1  0  0  0  0 
 15 16  1  0  0  0  0 
 16 17  1  0  0  0  0 
 18 19  1  0  0  0  0 
M  END
> <CDK Fingerprint>
QAAgEgAAACAIAAIAAAAAAAACAAAAEEGAAAAAAAwABiAAAmEARACAwAAAAACAABQgAAAgAAAQCEQAAAAAAAAKAAaQAAAAEJEAAAIEAAAAgiABAEBQAAgAAIAAAAACgAAgAAAAQCAgIEAAEAJCAAgAAJAEAIABCACAAAQAAiIQAA==

> <ActivityOutcome_CPDBAS_Rat>
active

> <TD50_Rat_mmol>
0.00282

$$$$

  CDK     0721101958

 22 23  0  0  0  0  0  0  0  0999 V2000
   10.6341    0.0000    0.0000 C   0  0  0  0  0  4  0  0  0  0  0  0
    9.3064    0.0000    0.0000 O   0  0  0  0  0  2  0  0  0  0  0  0
    8.6365   -1.1483    0.0000 C   0  0  0  0  0  4  0  0  0  0  0  0
    9.3064   -2.3086    0.0000 C   0  0  0  0  0  4  0  0  0  0  0  0
    8.6365   -3.4570    0.0000 C   0  0  0  0  0  4  0  0  0  0  0  0
    7.3087   -3.4570    0.0000 C   0  0  0  0  0  4  0  0  0  0  0  0
    6.6508   -2.3086    0.0000 C   0  0  0  0  0  4  0  0  0  0  0  0
    7.3087   -1.1483    0.0000 C   0  0  0  0  0  4  0  0  0  0  0  0
    5.3111   -2.3086    0.0000 C   0  0  0  0  0  4  0  0  0  0  0  0
    4.6532   -3.4570    0.0000 C   0  0  0  0  0  4  0  0  0  0  0  0
    3.3254   -3.4570    0.0000 C   0  0  0  0  0  4  0  0  0  0  0  0
    2.6555   -2.3086    0.0000 C   0  0  0  0  0  4  0  0  0  0  0  0
    3.3254   -1.1483    0.0000 C   0  0  0  0  0  4  0  0  0  0  0  0
    4.6532   -1.1483    0.0000 C   0  0  0  0  0  4  0  0  0  0  0  0
    1.3278   -2.3086    0.0000 N   0  0  0  0  0  3  0  0  0  0  0  0
    0.6699   -1.1483    0.0000 C   0  0  0  0  0  4  0  0  0  0  0  0
    0.0000    0.0000    0.0000 O   0  0  0  0  0  2  0  0  0  0  0  0
    2.6555   -4.6053    0.0000 O   0  0  0  0  0  2  0  0  0  0  0  0
    1.3278   -4.6053    0.0000 C   0  0  0  0  0  4  0  0  0  0  0  0
   10.6341   -2.3086    0.0000 N   0  0  0  0  0  3  0  0  0  0  0  0
   11.2920   -3.4570    0.0000 C   0  0  0  0  0  4  0  0  0  0  0  0
   11.9619   -4.6053    0.0000 O   0  0  0  0  0  2  0  0  0  0  0  0
  1  2  1  0  0  0  0 
  2  3  1  0  0  0  0 
  3  4  2  0  0  0  0 
  3  8  1  0  0  0  0 
  4  5  1  0  0  0  0 
  4 20  1  0  0  0  0 
  5  6  2  0  0  0  0 
  6  7  1  0  0  0  0 
  7  8  2  0  0  0  0 
  7  9  1  0  0  0  0 
  9 10  2  0  0  0  0 
  9 14  1  0  0  0  0 
 10 11  1  0  0  0  0 
 11 12  2  0  0  0  0 
 11 18  1  0  0  0  0 
 12 13  1  0  0  0  0 
 12 15  1  0  0  0  0 
 13 14  2  0  0  0  0 
 15 16  2  0  0  0  0 
 16 17  2  0  0  0  0 
 18 19  1  0  0  0  0 
 20 21  2  0  0  0  0 
 21 22  2  0  0  0  0 
M  END
> <CDK Fingerprint>
QCEAAABACCAOQAIAEAEAAAAAAAARAEHCAAACA0QAAwAAAmkAAACAgAAAAAAYAABgAIAgAAAEAEQAQIAAAAAAQI4QAAIAAACAAAIEAAAAwAAAAAAAAAgIAIIQAQAAgAAgAEAAQCAhIAAAQAJIIQEAAAAACICAhAAQCAgiACIQAA==

> <ActivityOutcome_CPDBAS_Rat>
active

> <TD50_Rat_mmol>
5.5

$$$$

  CDK     0721101958

 18 20  0  0  0  0  0  0  0  0999 V2000
    5.7570   -4.6524    0.0000 O   0  0  0  0  0  2  0  0  0  0  0  0
    6.9100   -3.9912    0.0000 C   0  0  0  0  0  4  0  0  0  0  0  0
    8.0631   -4.6524    0.0000 O   0  0  0  0  0  2  0  0  0  0  0  0
    6.9100   -2.6608    0.0000 C   0  0  0  0  0  4  0  0  0  0  0  0
    5.7570   -1.9916    0.0000 C   0  0  0  0  0  4  0  0  0  0  0  0
    4.6040   -2.6608    0.0000 C   0  0  0  0  0  4  0  0  0  0  0  0
    4.6040   -3.9912    0.0000 C   0  0  0  0  0  4  0  0  0  0  0  0
    3.4590   -4.6524    0.0000 C   0  0  0  0  0  4  0  0  0  0  0  0
    2.3060   -3.9912    0.0000 C   0  0  0  0  0  4  0  0  0  0  0  0
    2.3060   -2.6608    0.0000 C   0  0  0  0  0  4  0  0  0  0  0  0
    3.4590   -1.9916    0.0000 C   0  0  0  0  0  4  0  0  0  0  0  0
    3.4590   -0.6612    0.0000 O   0  0  0  0  0  2  0  0  0  0  0  0
    2.3060    0.0000    0.0000 C   0  0  0  0  0  4  0  0  0  0  0  0
    1.1530   -4.6524    0.0000 O   0  0  0  0  0  2  0  0  0  0  0  0
    0.0000   -3.9912    0.0000 C   0  0  0  0  0  4  0  0  0  0  0  0
    6.0392   -0.6934    0.0000 C   0  0  0  0  0  4  0  0  0  0  0  0
    7.3616   -0.5483    0.0000 C   0  0  0  0  0  4  0  0  0  0  0  0
    7.9018   -1.7658    0.0000 C   0  0  0  0  0  4  0  0  0  0  0  0
  1  2  1  0  0  0  0 
  1  7  1  0  0  0  0 
  2  3  2  0  0  0  0 
  2  4  1  0  0  0  0 
  4  5  2  0  0  0  0 
  4 18  1  0  0  0  0 
  5  6  1  0  0  0  0 
  5 16  1  0  0  0  0 
  6  7  2  0  0  0  0 
  6 11  1  0  0  0  0 
  7  8  1  0  0  0  0 
  8  9  2  0  0  0  0 
  9 10  1  0  0  0  0 
  9 14  1  0  0  0  0 
 10 11  2  0  0  0  0 
 11 12  1  0  0  0  0 
 12 13  1  0  0  0  0 
 14 15  1  0  0  0  0 
 16 17  1  0  0  0  0 
 17 18  1  0  0  0  0 
M  END
> <CDK Fingerprint>
EGgAIRYAAIQAABASETACBBJoAgBEJDigwEAGAMAKAAVLCQ5hEFAKAAgACEhAIIAQIQIgIACYECBUEARswEAEAgAGGCEExggRDJQgBGMQAegAEQBCAJEIQAihMJgiQogAIYJGKEEoKCQACRAGSRAMARUaHASA+DgEAwEAYAYgIAg=

> <ActivityOutcome_CPDBAS_Rat>
inactive

$$$$

  CDK     0721101958

 19 21  0  0  0  0  0  0  0  0999 V2000
    2.3535   -3.2741    0.0000 C   0  0  0  0  0  4  0  0  0  0  0  0
    1.1730   -4.0017    0.0000 C   0  0  0  0  0  4  0  0  0  0  0  0
    1.1730   -5.3900    0.0000 C   0  0  0  0  0  4  0  0  0  0  0  0
    2.3535   -6.0433    0.0000 C   0  0  0  0  0  4  0  0  0  0  0  0
    3.5339   -5.3157    0.0000 C   0  0  0  0  0  4  0  0  0  0  0  0
    3.5339   -3.9348    0.0000 C   0  0  0  0  0  4  0  0  0  0  0  0
    4.6921   -3.2741    0.0000 C   0  0  0  0  0  4  0  0  0  0  0  0
    4.6921   -1.9155    0.0000 C   0  0  0  0  0  4  0  0  0  0  0  0
    3.5339   -1.2621    0.0000 C   0  0  0  0  0  4  0  0  0  0  0  0
    2.3535   -1.9155    0.0000 O   0  0  0  0  0  2  0  0  0  0  0  0
    5.9839   -3.6898    0.0000 C   0  0  0  0  0  4  0  0  0  0  0  0
    6.7783   -2.5985    0.0000 C   0  0  0  0  0  4  0  0  0  0  0  0
    5.9839   -1.4997    0.0000 C   0  0  0  0  0  4  0  0  0  0  0  0
    3.5339    0.0000    0.0000 O   0  0  0  0  0  2  0  0  0  0  0  0
    4.6253   -6.0879    0.0000 O   0  0  0  0  0  2  0  0  0  0  0  0
    5.8354   -5.5311    0.0000 C   0  0  0  0  0  4  0  0  0  0  0  0
    0.0000   -6.0656    0.0000 O   0  0  0  0  0  2  0  0  0  0  0  0
    0.0000   -7.4242    0.0000 C   0  0  0  0  0  4  0  0  0  0  0  0
    6.1547   -4.5659    0.0000 O   0  0  0  0  0  2  0  0  0  0  0  0
  1  2  2  0  0  0  0 
  1  6  1  0  0  0  0 
  1 10  1  0  0  0  0 
  2  3  1  0  0  0  0 
  3  4  2  0  0  0  0 
  3 17  1  0  0  0  0 
  4  5  1  0  0  0  0 
  5  6  2  0  0  0  0 
  5 15  1  0  0  0  0 
  6  7  1  0  0  0  0 
  7  8  2  0  0  0  0 
  7 11  1  0  0  0  0 
  8  9  1  0  0  0  0 
  8 13  1  0  0  0  0 
  9 10  1  0  0  0  0 
  9 14  2  0  0  0  0 
 11 12  1  0  0  0  0 
 11 19  2  0  0  0  0 
 12 13  1  0  0  0  0 
 15 16  1  0  0  0  0 
 17 18  1  0  0  0  0 
M  END
> <CDK Fingerprint>
EGgAIRYCAIQEABASEzASBBJoQgBEJDigwEIGAMAKAAVLCa5hEFAKEAhACEhAIIAQIQIgIACYECBUEARs0EAEAhAGnCEExggRDJQwBGMQAegAEQBCAJGIQAihMJgiQogBIYJGKEEoKCQACRAGSRAMAZUaHASA+DgEAwEAYCYgIAg=

> <ActivityOutcome_CPDBAS_Rat>
inactive

$$$$

  CDK     0721101958

 19 21  0  0  0  0  0  0  0  0999 V2000
    2.3437   -3.2604    0.0000 C   0  0  0  0  0  4  0  0  0  0  0  0
    1.1681   -3.9850    0.0000 C   0  0  0  0  0  4  0  0  0  0  0  0
    1.1681   -5.3675    0.0000 C   0  0  0  0  0  4  0  0  0  0  0  0
    2.3437   -6.0181    0.0000 C   0  0  0  0  0  4  0  0  0  0  0  0
    3.5192   -5.2936    0.0000 C   0  0  0  0  0  4  0  0  0  0  0  0
    3.5192   -3.9184    0.0000 C   0  0  0  0  0  4  0  0  0  0  0  0
    4.6725   -3.2604    0.0000 C   0  0  0  0  0  4  0  0  0  0  0  0
    4.6725   -1.9075    0.0000 C   0  0  0  0  0  4  0  0  0  0  0  0
    3.5192   -1.2569    0.0000 C   0  0  0  0  0  4  0  0  0  0  0  0
    2.3437   -1.9075    0.0000 O   0  0  0  0  0  2  0  0  0  0  0  0
    5.9590   -3.6745    0.0000 C   0  0  0  0  0  4  0  0  0  0  0  0
    6.7500   -2.5876    0.0000 C   0  0  0  0  0  4  0  0  0  0  0  0
    5.9590   -1.4934    0.0000 C   0  0  0  0  0  4  0  0  0  0  0  0
    6.2769   -0.5397    0.0000 O   0  0  0  0  0  2  0  0  0  0  0  0
    3.5192    0.0000    0.0000 O   0  0  0  0  0  2  0  0  0  0  0  0
    4.6060   -6.0625    0.0000 O   0  0  0  0  0  2  0  0  0  0  0  0
    5.8111   -5.5080    0.0000 C   0  0  0  0  0  4  0  0  0  0  0  0
    0.0000   -6.0403    0.0000 O   0  0  0  0  0  2  0  0  0  0  0  0
    0.0000   -7.3933    0.0000 C   0  0  0  0  0  4  0  0  0  0  0  0
  1  2  2  0  0  0  0 
  1  6  1  0  0  0  0 
  1 10  1  0  0  0  0 
  2  3  1  0  0  0  0 
  3  4  2  0  0  0  0 
  3 18  1  0  0  0  0 
  4  5  1  0  0  0  0 
  5  6  2  0  0  0  0 
  5 16  1  0  0  0  0 
  6  7  1  0  0  0  0 
  7  8  2  0  0  0  0 
  7 11  1  0  0  0  0 
  8  9  1  0  0  0  0 
  8 13  1  0  0  0  0 
  9 10  1  0  0  0  0 
  9 15  2  0  0  0  0 
 11 12  1  0  0  0  0 
 12 13  1  0  0  0  0 
 13 14  2  0  0  0  0 
 16 17  1  0  0  0  0 
 18 19  1  0  0  0  0 
M  END
> <CDK Fingerprint>
EGggIRYAAIQEABASETACBBJoAgBEJDigwEAGAMAKAAVLCQ5hEFAKAAhACEhAIIAQIQIkIACYECBUFARuwEAEAgBGGCEExggTDJQoBGMSAegAEQBCAZEIRAihMJgiQogAIYJGKEEoKCQACRAGSRAsARUaHAaA/DgEAwEAbAYgIAg=

> <ActivityOutcome_CPDBAS_Rat>
inactive

$$$$

  CDK     0721101958

 28 32  0  0  0  0  0  0  0  0999 V2000
    1.1473   -6.6541    0.0000 O   0  0  0  0  0  2  0  0  0  0  0  0
    2.3045   -5.9857    0.0000 C   0  0  0  0  0  4  0  0  0  0  0  0
    3.4517   -6.6541    0.0000 C   0  0  0  0  0  4  0  0  0  0  0  0
    4.6090   -5.9857    0.0000 C   0  0  0  0  0  4  0  0  0  0  0  0
    5.7562   -6.6541    0.0000 C   0  0  0  0  0  4  0  0  0  0  0  0
    5.7562   -7.9809    0.0000 C   0  0  0  0  0  4  0  0  0  0  0  0
    4.6090   -8.6493    0.0000 C   0  0  0  0  0  4  0  0  0  0  0  0
    3.4517   -7.9809    0.0000 C   0  0  0  0  0  4  0  0  0  0  0  0
    2.3045   -8.6493    0.0000 O   0  0  0  0  0  2  0  0  0  0  0  0
    2.3045   -9.9761    0.0000 C   0  0  0  0  0  4  0  0  0  0  0  0
    7.0232   -8.3899    0.0000 O   0  0  0  0  0  2  0  0  0  0  0  0
    7.8113   -7.3125    0.0000 C   0  0  0  0  0  4  0  0  0  0  0  0
    7.0232   -6.2351    0.0000 C   0  0  0  0  0  4  0  0  0  0  0  0
    7.8113   -5.1676    0.0000 C   0  0  0  0  0  4  0  0  0  0  0  0
    9.0683   -5.5767    0.0000 C   0  0  0  0  0  4  0  0  0  0  0  0
    9.0683   -6.9035    0.0000 O   0  0  0  0  0  2  0  0  0  0  0  0
    4.6090   -4.6589    0.0000 O   0  0  0  0  0  2  0  0  0  0  0  0
    3.4517   -3.9905    0.0000 C   0  0  0  0  0  4  0  0  0  0  0  0
    2.3045   -4.6589    0.0000 C   0  0  0  0  0  4  0  0  0  0  0  0
    1.1473   -3.9905    0.0000 C   0  0  0  0  0  4  0  0  0  0  0  0
    1.1473   -2.6636    0.0000 C   0  0  0  0  0  4  0  0  0  0  0  0
    2.3045   -1.9952    0.0000 C   0  0  0  0  0  4  0  0  0  0  0  0
    3.4517   -2.6636    0.0000 C   0  0  0  0  0  4  0  0  0  0  0  0
    4.6090   -1.9952    0.0000 O   0  0  0  0  0  2  0  0  0  0  0  0
    4.6090   -0.6684    0.0000 C   0  0  0  0  0  4  0  0  0  0  0  0
    2.3045   -0.6684    0.0000 O   0  0  0  0  0  2  0  0  0  0  0  0
    1.1473    0.0000    0.0000 C   0  0  0  0  0  4  0  0  0  0  0  0
    0.0000   -4.6589    0.0000 O   0  0  0  0  0  2  0  0  0  0  0  0
  1  2  2  0  0  0  0 
  2  3  1  0  0  0  0 
  2 19  1  0  0  0  0 
  3  4  2  0  0  0  0 
  3  8  1  0  0  0  0 
  4  5  1  0  0  0  0 
  4 17  1  0  0  0  0 
  5  6  2  0  0  0  0 
  5 13  1  0  0  0  0 
  6  7  1  0  0  0  0 
  6 11  1  0  0  0  0 
  7  8  2  0  0  0  0 
  8  9  1  0  0  0  0 
  9 10  1  0  0  0  0 
 11 12  1  0  0  0  0 
 12 13  1  0  0  0  0 
 12 16  1  0  0  0  0 
 13 14  1  0  0  0  0 
 14 15  2  0  0  0  0 
 15 16  1  0  0  0  0 
 17 18  1  0  0  0  0 
 18 19  2  0  0  0  0 
 18 23  1  0  0  0  0 
 19 20  1  0  0  0  0 
 20 21  2  0  0  0  0 
 20 28  1  0  0  0  0 
 21 22  1  0  0  0  0 
 22 23  2  0  0  0  0 
 22 26  1  0  0  0  0 
 23 24  1  0  0  0  0 
 24 25  1  0  0  0  0 
 26 27  1  0  0  0  0 
M  END
> <CDK Fingerprint>
AIhAAgIAAgOEQkiAAkaZkERYiZAyHoUUaICUCuJyAG4KbhxjaRLAAoeqAIBs6jgAFDgWJCBUgFQFRgkEKlAAIUYQDhwAQY6CQ4kYMjQioSbfDnEJQgEAKFAE0DPAIAKAACACQkHAIjYgIxgwHkyKLPbxO7QJsjEqSWMCMIciIEgB

> <ActivityOutcome_CPDBAS_Rat>
active

> <TD50_Rat_mmol>
0.000947

$$$$

  CDK     0721101958

 13 12  0  0  0  0  0  0  0  0999 V2000
    3.9838   -8.0481    0.0000 C   0  0  0  0  0  4  0  0  0  0  0  0
    2.6559   -8.0481    0.0000 O   0  0  0  0  0  2  0  0  0  0  0  0
    0.8370   -7.5652    0.0000 S   0  0  0  0  0  2  0  0  0  0  0  0
    1.9959   -6.8972    0.0000 P   0  0  0  0  0  5  0  0  0  0  0  0
    1.3199   -5.7544    0.0000 S   0  0  0  0  0  2  0  0  0  0  0  0
    1.9959   -4.6035    0.0000 C   0  0  0  0  0  4  0  0  0  0  0  0
    1.3199   -3.4446    0.0000 C   0  0  0  0  0  4  0  0  0  0  0  0
    1.9959   -2.2937    0.0000 N   0  0  0  0  0  3  0  0  0  0  0  0
    0.0000   -1.1509    0.0000 C   0  0  0  0  0  4  0  0  0  0  0  0
    1.3199   -1.1509    0.0000 C   0  0  0  0  0  4  0  0  0  0  0  0
    1.9959    0.0000    0.0000 O   0  0  0  0  0  2  0  0  0  0  0  0
    3.1468   -6.2372    0.0000 O   0  0  0  0  0  2  0  0  0  0  0  0
    4.2896   -6.8972    0.0000 C   0  0  0  0  0  4  0  0  0  0  0  0
  1  2  1  0  0  0  0 
  2  4  1  0  0  0  0 
  3  4  2  0  0  0  0 
  4  5  1  0  0  0  0 
  4 12  1  0  0  0  0 
  5  6  1  0  0  0  0 
  6  7  1  0  0  0  0 
  7  8  1  0  0  0  0 
  8 10  1  0  0  0  0 
  9 10  1  0  0  0  0 
 10 11  2  0  0  0  0 
 12 13  1  0  0  0  0 
M  END
> <CDK Fingerprint>
EAAAAAAAAgAIEgAAAAAAAAAAAAAACAAAAAEAAACAAAIBYAACAAAIAAAAEAABgGAAAAgAAQAAAAIAAIAAAASAAwAAAAQAAAAAABAAAACQABBAAoAIAAACBQACAAAAAABARAAAAAAIAkAAAAACAAAAIAQAAFEAAAAAAAAAAgAB

> <ActivityOutcome_CPDBAS_Rat>
inactive

$$$$

  CDK     0721101958

 17 18  0  0  0  0  0  0  0  0999 V2000
    0.0000   -3.4549    0.0000 C   0  0  0  0  0  4  0  0  0  0  0  0
    0.6591   -2.3068    0.0000 N   0  0  0  0  0  3  0  0  0  0  0  0
    1.9879   -2.3068    0.0000 C   0  0  0  0  0  4  0  0  0  0  0  0
    2.6576   -1.1481    0.0000 C   0  0  0  0  0  4  0  0  0  0  0  0
    3.9864   -1.1481    0.0000 C   0  0  0  0  0  4  0  0  0  0  0  0
    4.6561   -2.3068    0.0000 C   0  0  0  0  0  4  0  0  0  0  0  0
    3.9864   -3.4549    0.0000 C   0  0  0  0  0  4  0  0  0  0  0  0
    2.6576   -3.4549    0.0000 C   0  0  0  0  0  4  0  0  0  0  0  0
    5.9849   -2.3068    0.0000 N   0  0  0  0  0  3  0  0  0  0  0  0
    6.6440   -1.1481    0.0000 N   0  0  0  0  0  3  0  0  0  0  0  0
    7.9728   -1.1481    0.0000 C   0  0  0  0  0  4  0  0  0  0  0  0
    8.6425    0.0000    0.0000 C   0  0  0  0  0  4  0  0  0  0  0  0
    9.9606    0.0000    0.0000 C   0  0  0  0  0  4  0  0  0  0  0  0
   10.6303   -1.1481    0.0000 C   0  0  0  0  0  4  0  0  0  0  0  0
    9.9606   -2.3068    0.0000 C   0  0  0  0  0  4  0  0  0  0  0  0
    8.6425   -2.3068    0.0000 C   0  0  0  0  0  4  0  0  0  0  0  0
    0.0000   -1.1481    0.0000 C   0  0  0  0  0  4  0  0  0  0  0  0
  1  2  1  0  0  0  0 
  2  3  1  0  0  0  0 
  2 17  1  0  0  0  0 
  3  4  2  0  0  0  0 
  3  8  1  0  0  0  0 
  4  5  1  0  0  0  0 
  5  6  2  0  0  0  0 
  6  7  1  0  0  0  0 
  6  9  1  0  0  0  0 
  7  8  2  0  0  0  0 
  9 10  2  0  0  0  0 
 10 11  1  0  0  0  0 
 11 12  2  0  0  0  0 
 11 16  1  0  0  0  0 
 12 13  1  0  0  0  0 
 13 14  2  0  0  0  0 
 14 15  1  0  0  0  0 
 15 16  2  0  0  0  0 
M  END
> <CDK Fingerprint>
QAAgAAAAAAAAAQIAAAABAABAEABACAAEQBIAAABoEAAAAAAAAAAAQAAAAAAEAAAAAgBAAAAIgAQAEEAAAAIAAAAAIAAAAQAAAAAAAAAAAAAAAAAgAAAAAAAAIAAAAAAgAAAgAAACAAAACABAAACAAAIAAAAQAAADEIA=

> <ActivityOutcome_CPDBAS_Rat>
active

> <TD50_Rat_mmol>
0.0147

$$$$

  CDK     0721101958

 18 18  0  0  0  0  0  0  0  0999 V2000
    7.9794   -4.6089    0.0000 C   0  0  0  0  0  4  0  0  0  0  0  0
    7.3183   -3.4543    0.0000 N   0  0  0  0  0  3  0  0  0  0  0  0
    7.9794   -2.3091    0.0000 N   0  0  0  0  0  3  0  0  0  0  0  0
    9.3109   -2.3091    0.0000 O   0  0  0  0  0  2  0  0  0  0  0  0
    5.9869   -3.4543    0.0000 C   0  0  0  0  0  4  0  0  0  0  0  0
    5.3165   -4.6089    0.0000 O   0  0  0  0  0  2  0  0  0  0  0  0
    5.3165   -2.3091    0.0000 C   0  0  0  0  0  4  0  0  0  0  0  0
    3.9944   -2.3091    0.0000 C   0  0  0  0  0  4  0  0  0  0  0  0
    3.3240   -1.1545    0.0000 C   0  0  0  0  0  4  0  0  0  0  0  0
    3.9944    0.0000    0.0000 C   0  0  0  0  0  4  0  0  0  0  0  0
    5.3165    0.0000    0.0000 C   0  0  0  0  0  4  0  0  0  0  0  0
    5.9869   -1.1545    0.0000 C   0  0  0  0  0  4  0  0  0  0  0  0
    3.3240   -3.4543    0.0000 C   0  0  0  0  0  4  0  0  0  0  0  0
    3.9944   -4.6089    0.0000 O   0  0  0  0  0  2  0  0  0  0  0  0
    1.9925   -3.4543    0.0000 N   0  0  0  0  0  3  0  0  0  0  0  0
    1.3315   -4.6089    0.0000 C   0  0  0  0  0  4  0  0  0  0  0  0
    1.3315   -2.3091    0.0000 N   0  0  0  0  0  3  0  0  0  0  0  0
    0.0000   -2.3091    0.0000 O   0  0  0  0  0  2  0  0  0  0  0  0
  1  2  1  0  0  0  0 
  2  3  1  0  0  0  0 
  2  5  1  0  0  0  0 
  3  4  2  0  0  0  0 
  5  6  2  0  0  0  0 
  5  7  1  0  0  0  0 
  7  8  2  0  0  0  0 
  7 12  1  0  0  0  0 
  8  9  1  0  0  0  0 
  8 13  1  0  0  0  0 
  9 10  2  0  0  0  0 
 10 11  1  0  0  0  0 
 11 12  2  0  0  0  0 
 13 14  2  0  0  0  0 
 13 15  1  0  0  0  0 
 15 16  1  0  0  0  0 
 15 17  1  0  0  0  0 
 17 18  2  0  0  0  0 
M  END
> <CDK Fingerprint>
EAAAAAAAAABCAIAgAACIAAAgACAAAAAAAgAgAAwAACQRAgBoAAACBAAAAAAAAAAAIAABBAACgQBAAABQgAAAAoAEAAAAAAAAAAAAAHAAAIAAAAAAAACAAAGAAAAACoAAIAFEIEAgDAEAgAACSAAAAEAMAhCAUghACEAAAAADAAA=

> <ActivityOutcome_CPDBAS_Rat>
inactive

$$$$

  CDK     0721101958

  6  5  0  0  0  0  0  0  0  0999 V2000
    1.6373    0.0000    0.0000 O   0  0  0  0  0  2  0  0  0  0  0  0
    2.3034   -1.1517    0.0000 P   0  0  0  0  0  0  0  0  0  0  0  0
    2.9694   -2.3034    0.0000 O   0  0  0  0  0  2  0  0  0  0  0  0
    4.2973   -2.3034    0.0000 C   0  0  0  0  0  4  0  0  0  0  0  0
    1.1517   -1.8178    0.0000 O   0  0  0  0  0  2  0  0  0  0  0  0
    0.0000   -1.1517    0.0000 C   0  0  0  0  0  4  0  0  0  0  0  0
  1  2  2  0  0  0  0 
  2  3  1  0  0  0  0 
  2  5  1  0  0  0  0 
  3  4  1  0  0  0  0 
  5  6  1  0  0  0  0 
M  END
> <CDK Fingerprint>
AgAAAAAAAAAAAAAACAAAAAAAAAAAAAABYAAAAAAAAAAAAAQAAAAAAAAAAAAAAAAAAAAAAAAAAQAAAAAAAAAAAAAAAAAAAAAAAAAAAAAABAAAAAAAAAAAAAAAAAAIAgAAAAAEAAAAAAAAAAAAAAAAAAAAAIAA

> <ActivityOutcome_CPDBAS_Rat>
active

> <TD50_Rat_mmol>
1.26

$$$$

  CDK     0721101958

  7  6  0  0  0  0  0  0  0  0999 V2000
    1.6373    0.0000    0.0000 C   0  0  0  0  0  4  0  0  0  0  0  0
    2.3034   -1.1517    0.0000 P   0  0  0  0  0  5  0  0  0  0  0  0
    3.4550   -0.4856    0.0000 O   0  0  0  0  0  2  0  0  0  0  0  0
    2.9694   -2.3034    0.0000 O   0  0  0  0  0  2  0  0  0  0  0  0
    4.2973   -2.3034    0.0000 C   0  0  0  0  0  4  0  0  0  0  0  0
    1.1517   -1.8178    0.0000 O   0  0  0  0  0  2  0  0  0  0  0  0
    0.0000   -1.1517    0.0000 C   0  0  0  0  0  4  0  0  0  0  0  0
  1  2  1  0  0  0  0 
  2  3  2  0  0  0  0 
  2  4  1  0  0  0  0 
  2  6  1  0  0  0  0 
  4  5  1  0  0  0  0 
  6  7  1  0  0  0  0 
M  END
> <CDK Fingerprint>
EAAAAAAAAAAAAAACAABAAAAAAAAAAAAIAAAAAAAAAAAAAAFgAAAAAAAAAAAABAAAAAAAAAAAAAAAAAAAAAAAAAABgAAAAAAAAAAAAAAAAAAAAAAAAAAAAAAEAAAAAAAAAAAAAAAAAAoCAAAAAAQAAAAAAAAAAAAAAAAAAAAAgAA=

> <ActivityOutcome_CPDBAS_Rat>
active

> <TD50_Rat_mmol>
5.64

$$$$

  CDK     0721101958

 12 12  0  0  0  0  0  0  0  0999 V2000
    3.9931   -1.9996    0.0000 P   0  0  0  0  0  5  0  0  0  0  0  0
    3.9931   -3.3286    0.0000 O   0  0  0  0  0  2  0  0  0  0  0  0
    3.9931   -0.6705    0.0000 O   0  0  0  0  0  2  0  0  0  0  0  0
    5.1426    0.0000    0.0000 C   0  0  0  0  0  4  0  0  0  0  0  0
    5.3222   -1.9996    0.0000 O   0  0  0  0  0  2  0  0  0  0  0  0
    5.9867   -3.1490    0.0000 C   0  0  0  0  0  4  0  0  0  0  0  0
    2.6581   -1.9996    0.0000 N   0  0  0  0  0  3  0  0  0  0  0  0
    1.9936   -3.1490    0.0000 C   0  0  0  0  0  4  0  0  0  0  0  0
    0.6645   -3.1490    0.0000 C   0  0  0  0  0  4  0  0  0  0  0  0
    0.0000   -1.9996    0.0000 O   0  0  0  0  0  2  0  0  0  0  0  0
    0.6645   -0.8441    0.0000 C   0  0  0  0  0  4  0  0  0  0  0  0
    1.9936   -0.8441    0.0000 C   0  0  0  0  0  4  0  0  0  0  0  0
  1  2  2  0  0  0  0 
  1  3  1  0  0  0  0 
  1  5  1  0  0  0  0 
  1  7  1  0  0  0  0 
  3  4  1  0  0  0  0 
  5  6  1  0  0  0  0 
  7  8  1  0  0  0  0 
  7 12  1  0  0  0  0 
  8  9  1  0  0  0  0 
  9 10  1  0  0  0  0 
 10 11  1  0  0  0  0 
 11 12  1  0  0  0  0 
M  END
> <CDK Fingerprint>
BAAQAAEAAAAGAQACAAAAAAMAAAAAAgAIgAAAAAAAAAAAAwVgIIAAAAAAAAAABAAIIAoAAEAAAAAAAARAgAAAACADABAAAAAAAAAAAAAEAIAAAABAAAAAAAAEEAAAAAAAAAAgAAAAAgwCAAAAAAQAAAAAAAAAAAEEAABIgAADgAA=

> <ActivityOutcome_CPDBAS_Rat>
active

> <TD50_Rat_mmol>
3.15

$$$$

  CDK     0721101958

 16 17  0  0  0  0  0  0  0  0999 V2000
    7.6582   -1.6149    0.0000 C   0  0  0  0  0  4  0  0  0  0  0  0
    8.3241   -2.7636    0.0000 C   0  0  0  0  0  4  0  0  0  0  0  0
    7.6582   -3.9207    0.0000 C   0  0  0  0  0  4  0  0  0  0  0  0
    6.3263   -3.9207    0.0000 N   0  0  0  0  0  3  0  0  0  0  0  0
    5.6687   -2.7636    0.0000 C   0  0  0  0  0  4  0  0  0  0  0  0
    6.3263   -1.6149    0.0000 N   0  0  0  0  0  3  0  0  0  0  0  0
    4.3369   -2.7636    0.0000 C   0  0  0  0  0  4  0  0  0  0  0  0
    3.5544   -3.8457    0.0000 C   0  0  0  0  0  4  0  0  0  0  0  0
    2.2891   -3.4295    0.0000 C   0  0  0  0  0  4  0  0  0  0  0  0
    2.2891   -2.1060    0.0000 C   0  0  0  0  0  4  0  0  0  0  0  0
    3.5544   -1.6898    0.0000 O   0  0  0  0  0  2  0  0  0  0  0  0
    1.2153   -1.3235    0.0000 N   0  0  0  0  0  4  0  0  0  0  0  0
    0.0000   -1.8646    0.0000 O   0  0  0  0  0  1  0  0  0  0  0  0
    1.3568    0.0000    0.0000 O   0  0  0  0  0  2  0  0  0  0  0  0
    8.3241   -5.0694    0.0000 C   0  0  0  0  0  4  0  0  0  0  0  0
    8.3241   -0.4661    0.0000 C   0  0  0  0  0  4  0  0  0  0  0  0
  1  2  2  0  0  0  0 
  1  6  1  0  0  0  0 
  1 16  1  0  0  0  0 
  2  3  1  0  0  0  0 
  3  4  2  0  0  0  0 
  3 15  1  0  0  0  0 
  4  5  1  0  0  0  0 
  5  6  2  0  0  0  0 
  5  7  1  0  0  0  0 
  7  8  2  0  0  0  0 
  7 11  1  0  0  0  0 
  8  9  1  0  0  0  0 
  9 10  2  0  0  0  0 
 10 11  1  0  0  0  0 
 10 12  1  0  0  0  0 
 12 13  1  0  0  0  0 
 12 14  2  0  0  0  0 
M  CHG  1  12   1
M  CHG  1  13  -1
M  END
> <CDK Fingerprint>
AiAAAjiCM6EgQBAIAJDSAAhKIKAAgJLBkACIQQAECAYAAIBiAAQgAIAQgBAAKAIAMAAAAAIAAAJAAAAAAASAQBEAAAAUAAQAABAAAEAOkAIQAAKAEAQEQOSAEEAgAIgMIADUAZQgDQRoACIEQJCLAQgIgAIigAAgBAAAAAIiAAI=

> <ActivityOutcome_CPDBAS_Rat>
active

> <TD50_Rat_mmol>
0.00634

$$$$

  CDK     0721101958

 10 10  0  0  0  0  0  0  0  0999 V2000
    2.3044   -1.9948    0.0000 C   0  0  0  0  0  4  0  0  0  0  0  0
    3.5196   -1.4560    0.0000 N   0  0  0  0  0  3  0  0  0  0  0  0
    4.4081   -2.4420    0.0000 C   0  0  0  0  0  4  0  0  0  0  0  0
    5.7323   -2.3044    0.0000 C   0  0  0  0  0  4  0  0  0  0  0  0
    3.7432   -3.5942    0.0000 N   0  0  0  0  0  3  0  0  0  0  0  0
    2.4420   -3.3190    0.0000 C   0  0  0  0  0  4  0  0  0  0  0  0
    3.7948   -0.1548    0.0000 C   0  0  0  0  0  4  0  0  0  0  0  0
    1.1522   -1.3299    0.0000 N   0  0  0  0  0  4  0  0  0  0  0  0
    1.1522    0.0000    0.0000 O   0  0  0  0  0  2  0  0  0  0  0  0
    0.0000   -1.9948    0.0000 O   0  0  0  0  0  1  0  0  0  0  0  0
  1  2  1  0  0  0  0 
  1  6  2  0  0  0  0 
  1  8  1  0  0  0  0 
  2  3  1  0  0  0  0 
  2  7  1  0  0  0  0 
  3  4  1  0  0  0  0 
  3  5  2  0  0  0  0 
  5  6  1  0  0  0  0 
  8  9  2  0  0  0  0 
  8 10  1  0  0  0  0 
M  CHG  1   8   1
M  CHG  1  10  -1
M  END
> <CDK Fingerprint>
AnCIIiUAAAAoABEQAAADIAAAAFAAABACQAAEAAQAAABgAAAAAIIAAAAAAEAAIAAAgAIAAABAAAAAIAAAAAEAAACEAAAAAEAAAQAgIAAAYBAEAAEAQCAAAAJAAICEAAAEEAQAABAAACIAAAABIAAAAAAAAQAAAAAAAAACAAI=

> <ActivityOutcome_CPDBAS_Rat>
active

> <TD50_Rat_mmol>
0.12

$$$$

  CDK     0721101958

 14 14  0  0  0  0  0  0  0  0999 V2000
    6.6460   -3.4559    0.0000 O   0  0  0  0  0  2  0  0  0  0  0  0
    5.9814   -2.3062    0.0000 C   0  0  0  0  0  4  0  0  0  0  0  0
    4.6522   -2.3062    0.0000 C   0  0  0  0  0  4  0  0  0  0  0  0
    3.9876   -3.4559    0.0000 C   0  0  0  0  0  4  0  0  0  0  0  0
    2.6584   -3.4559    0.0000 C   0  0  0  0  0  4  0  0  0  0  0  0
    1.9938   -2.3062    0.0000 C   0  0  0  0  0  4  0  0  0  0  0  0
    2.6584   -1.1498    0.0000 C   0  0  0  0  0  4  0  0  0  0  0  0
    3.9876   -1.1498    0.0000 C   0  0  0  0  0  4  0  0  0  0  0  0
    0.6646   -2.3062    0.0000 C   0  0  0  0  0  4  0  0  0  0  0  0
    0.0000   -1.1498    0.0000 O   0  0  0  0  0  2  0  0  0  0  0  0
    0.0000   -3.4559    0.0000 O   0  0  0  0  0  2  0  0  0  0  0  0
    0.6646   -4.6057    0.0000 C   0  0  0  0  0  4  0  0  0  0  0  0
    6.6460   -1.1498    0.0000 O   0  0  0  0  0  2  0  0  0  0  0  0
    5.9814    0.0000    0.0000 C   0  0  0  0  0  4  0  0  0  0  0  0
  1  2  2  0  0  0  0 
  2  3  1  0  0  0  0 
  2 13  1  0  0  0  0 
  3  4  2  0  0  0  0 
  3  8  1  0  0  0  0 
  4  5  1  0  0  0  0 
  5  6  2  0  0  0  0 
  6  7  1  0  0  0  0 
  6  9  1  0  0  0  0 
  7  8  2  0  0  0  0 
  9 10  2  0  0  0  0 
  9 11  1  0  0  0  0 
 11 12  1  0  0  0  0 
 13 14  1  0  0  0  0 
M  END
> <CDK Fingerprint>
AgAAAAAAAAAAAIACAAIAAAABAAAAAAAAgAAAAIAAAAAAAABoCAAABAAAAAAAAAAAIEIAAAAAACBAAAAAAAAAAAAcAAAAAAAAAAAAAAAIAACAAgAAAAAAAACgEAAAAIAAIABAAEAgBAAQAAACQAgACACAAACAUAhAAAEIAAAAAAA=

> <ActivityOutcome_CPDBAS_Rat>
inactive

$$$$

  CDK     0721101958

  6  5  0  0  0  0  0  0  0  0999 V2000
    2.3053   -1.3272    0.0000 C   0  0  0  0  0  4  0  0  0  0  0  0
    1.1509   -2.0012    0.0000 N   0  0  0  0  0  3  0  0  0  0  0  0
    2.3053    0.0000    0.0000 O   0  0  0  0  0  2  0  0  0  0  0  0
    3.4563   -2.0012    0.0000 C   0  0  0  0  0  4  0  0  0  0  0  0
    1.1509   -3.3284    0.0000 C   0  0  0  0  0  4  0  0  0  0  0  0
    0.0000   -1.3445    0.0000 C   0  0  0  0  0  4  0  0  0  0  0  0
  1  2  1  0  0  0  0 
  1  3  2  0  0  0  0 
  1  4  1  0  0  0  0 
  2  5  1  0  0  0  0 
  2  6  1  0  0  0  0 
M  END
> <CDK Fingerprint>
AgAAAAAAAAAAAAAAAAAAAAAAAAAAAAAAAAAAYAAAAAAAAAAAAAAAACAAAAAAAAAAAAAAAIAAAACAAAAAAAAAAAAAAAAAAACAAAAAAAAAAAAAAAAAAAAAAAAAQAAAAAAAAAAAAAAAAAAAAAAAAFAAAAAAAAAAAgAA

> <ActivityOutcome_CPDBAS_Rat>
inactive

$$$$

  CDK     0721101958

 20 21  0  0  0  0  0  0  0  0999 V2000
    1.2957   -1.2544    0.0000 N   0  0  0  0  0  4  0  0  0  0  0  0
    0.0000   -1.5301    0.0000 O   0  0  0  0  0  1  0  0  0  0  0  0
    1.7093    0.0000    0.0000 O   0  0  0  0  0  2  0  0  0  0  0  0
    2.1917   -2.2469    0.0000 C   0  0  0  0  0  4  0  0  0  0  0  0
    3.5151   -2.1090    0.0000 O   0  0  0  0  0  2  0  0  0  0  0  0
    4.0527   -3.3221    0.0000 C   0  0  0  0  0  4  0  0  0  0  0  0
    3.0602   -4.2181    0.0000 C   0  0  0  0  0  4  0  0  0  0  0  0
    1.9161   -3.5426    0.0000 C   0  0  0  0  0  4  0  0  0  0  0  0
    5.3484   -3.5978    0.0000 C   0  0  0  0  0  4  0  0  0  0  0  0
    5.7620   -4.8660    0.0000 C   0  0  0  0  0  4  0  0  0  0  0  0
    7.0715   -5.1416    0.0000 C   0  0  0  0  0  4  0  0  0  0  0  0
    8.0502   -4.2456    0.0000 O   0  0  0  0  0  2  0  0  0  0  0  0
    9.2081   -4.9211    0.0000 C   0  0  0  0  0  4  0  0  0  0  0  0
   10.4211   -4.3697    0.0000 N   0  0  0  0  0  3  0  0  0  0  0  0
   11.4963   -5.1554    0.0000 C   0  0  0  0  0  4  0  0  0  0  0  0
   12.7094   -4.6178    0.0000 N   0  0  0  0  0  3  0  0  0  0  0  0
   12.8472   -3.2945    0.0000 C   0  0  0  0  0  4  0  0  0  0  0  0
   13.7846   -5.4036    0.0000 C   0  0  0  0  0  4  0  0  0  0  0  0
    8.9324   -6.2168    0.0000 N   0  0  0  0  0  3  0  0  0  0  0  0
    7.6091   -6.3547    0.0000 N   0  0  0  0  0  3  0  0  0  0  0  0
  1  2  1  0  0  0  0 
  1  3  2  0  0  0  0 
  1  4  1  0  0  0  0 
  4  5  1  0  0  0  0 
  4  8  2  0  0  0  0 
  5  6  1  0  0  0  0 
  6  7  2  0  0  0  0 
  6  9  1  0  0  0  0 
  7  8  1  0  0  0  0 
  9 10  2  0  0  0  0 
 10 11  1  0  0  0  0 
 11 12  1  0  0  0  0 
 11 20  2  0  0  0  0 
 12 13  1  0  0  0  0 
 13 14  1  0  0  0  0 
 13 19  2  0  0  0  0 
 14 15  1  0  0  0  0 
 15 16  1  0  0  0  0 
 16 17  1  0  0  0  0 
 16 18  1  0  0  0  0 
 19 20  1  0  0  0  0 
M  CHG  1   1   1
M  CHG  1   2  -1
M  END
> <CDK Fingerprint>
EMADBBiLCSWjEB5pAQDgABBKKAgAAJLBEQAQQBAMhlQAAAB8AmQBBBAQAAOAgRCAIEIQAAIIlQFQSIiAgASCAAARgAABAABSIQIABFAMhAgUAEKCsCCEAECADAAgQ8REIABkMxQjBAAgAXIgYJAIAAgAwAQCgJhggIpBRwASCMA=

> <ActivityOutcome_CPDBAS_Rat>
active

> <TD50_Rat_mmol>
0.0802

$$$$

  CDK     0721101958

  9  9  0  0  0  0  0  0  0  0999 V2000
    0.0000   -2.3037    0.0000 N   0  0  0  0  0  3  0  0  0  0  0  0
    1.3315   -2.3037    0.0000 C   0  0  0  0  0  4  0  0  0  0  0  0
    1.9950   -1.1518    0.0000 C   0  0  0  0  0  4  0  0  0  0  0  0
    3.3265   -1.1518    0.0000 C   0  0  0  0  0  4  0  0  0  0  0  0
    3.9899   -2.3037    0.0000 C   0  0  0  0  0  4  0  0  0  0  0  0
    3.3265   -3.4555    0.0000 C   0  0  0  0  0  4  0  0  0  0  0  0
    1.3315    0.0000    0.0000 C   0  0  0  0  0  4  0  0  0  0  0  0
    1.9950   -3.4555    0.0000 C   0  0  0  0  0  4  0  0  0  0  0  0
    1.3315   -4.6073    0.0000 C   0  0  0  0  0  4  0  0  0  0  0  0
  1  2  1  0  0  0  0 
  2  3  2  0  0  0  0 
  2  8  1  0  0  0  0 
  3  4  1  0  0  0  0 
  3  7  1  0  0  0  0 
  4  5  2  0  0  0  0 
  5  6  1  0  0  0  0 
  6  8  2  0  0  0  0 
  8  9  1  0  0  0  0 
M  END
> <CDK Fingerprint>
IgAAAAAAAAAAAAAAAAAAQAAAAAAABAACAAAAYAAAAAAAAAAAAAAAAHAAAAAAAAAAQAAAAAAAAAAABAAAAAAAAAAAAAAAAAAAAAAAAAAAAAAAgAAAAACAACAAAABAIAAAAAAAAkAAAAAAAAAAgAAAAAAAAAQAAhAA

> <ActivityOutcome_CPDBAS_Rat>
inactive

$$$$

  CDK     0721101958

  9  9  0  0  0  0  0  0  0  0999 V2000
    0.0000   -2.3037    0.0000 C   0  0  0  0  0  4  0  0  0  0  0  0
    0.6655   -1.1542    0.0000 N   0  0  0  0  0  3  0  0  0  0  0  0
    1.9965   -1.1542    0.0000 C   0  0  0  0  0  4  0  0  0  0  0  0
    2.6574    0.0000    0.0000 C   0  0  0  0  0  4  0  0  0  0  0  0
    3.9884    0.0000    0.0000 C   0  0  0  0  0  4  0  0  0  0  0  0
    4.6539   -1.1542    0.0000 C   0  0  0  0  0  4  0  0  0  0  0  0
    3.9884   -2.3037    0.0000 C   0  0  0  0  0  4  0  0  0  0  0  0
    2.6574   -2.3037    0.0000 C   0  0  0  0  0  4  0  0  0  0  0  0
    0.0000    0.0000    0.0000 C   0  0  0  0  0  4  0  0  0  0  0  0
  1  2  1  0  0  0  0 
  2  3  1  0  0  0  0 
  2  9  1  0  0  0  0 
  3  4  2  0  0  0  0 
  3  8  1  0  0  0  0 
  4  5  1  0  0  0  0 
  5  6  2  0  0  0  0 
  6  7  1  0  0  0  0 
  7  8  2  0  0  0  0 
M  END
> <CDK Fingerprint>
IAAAAAAAAAAAAAAAAAAAQAAAAAAABEACAAAAYAAAAAAAAAAAAAAAAAAABAAAAAIAQAAAAIAEAABAAAAAAAAAAAAAAAAAAAAAAAAAAAAAAAAAAAAAAAAAACAAAAAAIAAAAAAAAgAAAAAAAAAAgAAAAAAAAAAAAhAA

> <ActivityOutcome_CPDBAS_Rat>
active

> <TD50_Rat_mmol>
1.03

$$$$

  CDK     0721101958

 11 11  0  0  0  0  0  0  0  0999 V2000
    3.4549   -1.9919    0.0000 C   0  0  0  0  0  4  0  0  0  0  0  0
    4.7653   -2.2254    0.0000 C   0  0  0  0  0  4  0  0  0  0  0  0
    3.9123   -0.7434    0.0000 C   0  0  0  0  0  4  0  0  0  0  0  0
    3.4549   -3.3214    0.0000 C   0  0  0  0  0  4  0  0  0  0  0  0
    4.6081   -3.9886    0.0000 O   0  0  0  0  0  2  0  0  0  0  0  0
    2.3016   -3.9886    0.0000 N   0  0  0  0  0  3  0  0  0  0  0  0
    1.1532   -3.3214    0.0000 C   0  0  0  0  0  4  0  0  0  0  0  0
    0.0000   -3.9886    0.0000 O   0  0  0  0  0  2  0  0  0  0  0  0
    1.1532   -1.9919    0.0000 N   0  0  0  0  0  3  0  0  0  0  0  0
    2.3016   -1.3295    0.0000 C   0  0  0  0  0  4  0  0  0  0  0  0
    2.3016    0.0000    0.0000 O   0  0  0  0  0  2  0  0  0  0  0  0
  1  2  1  0  0  0  0 
  1  3  1  0  0  0  0 
  1  4  1  0  0  0  0 
  1 10  1  0  0  0  0 
  4  5  2  0  0  0  0 
  4  6  1  0  0  0  0 
  6  7  1  0  0  0  0 
  7  8  2  0  0  0  0 
  7  9  1  0  0  0  0 
  9 10  1  0  0  0  0 
 10 11  2  0  0  0  0 
M  END
> <CDK Fingerprint>
IAAAEAAAAhAAQAABAAAAAAAAAAAAAAAAAAAAAAAAAAAAYAAAIIAAACAAAAABQCAAQAACAAAAAAAAAsAAAACAQAAAAEABAQAAAAAAAACAAACAACAAAACAAAAAAAAAAAAAQAgAAAAAAAAAAAAAAAEEAEAAAFAAAAEAAAAIAgAA

> <ActivityOutcome_CPDBAS_Rat>
inactive

$$$$

  CDK     0721101958

 16 15  0  0  0  0  0  0  0  0999 V2000
   11.3180   -1.3274    0.0000 C   0  0  0  0  0  4  0  0  0  0  0  0
   12.6454   -1.3274    0.0000 N   0  0  0  0  0  4  0  0  0  0  0  0
   12.6454   -2.6548    0.0000 C   0  0  0  0  0  4  0  0  0  0  0  0
   11.4997   -3.3255    0.0000 C   0  0  0  0  0  4  0  0  0  0  0  0
   10.3399   -2.6548    0.0000 C   0  0  0  0  0  4  0  0  0  0  0  0
    9.1941   -3.3255    0.0000 C   0  0  0  0  0  4  0  0  0  0  0  0
    8.0484   -2.6548    0.0000 C   0  0  0  0  0  4  0  0  0  0  0  0
    6.9026   -3.3255    0.0000 C   0  0  0  0  0  4  0  0  0  0  0  0
    5.7429   -2.6548    0.0000 C   0  0  0  0  0  4  0  0  0  0  0  0
    4.5971   -3.3255    0.0000 C   0  0  0  0  0  4  0  0  0  0  0  0
    3.4513   -2.6548    0.0000 C   0  0  0  0  0  4  0  0  0  0  0  0
    2.3055   -3.3255    0.0000 C   0  0  0  0  0  4  0  0  0  0  0  0
    1.1458   -2.6548    0.0000 C   0  0  0  0  0  4  0  0  0  0  0  0
    0.0000   -3.3255    0.0000 C   0  0  0  0  0  4  0  0  0  0  0  0
   12.6454    0.0000    0.0000 C   0  0  0  0  0  4  0  0  0  0  0  0
   13.9729   -1.3274    0.0000 O   0  0  0  0  0  1  0  0  0  0  0  0
  1  2  1  0  0  0  0 
  2  3  1  0  0  0  0 
  2 15  1  0  0  0  0 
  2 16  1  0  0  0  0 
  3  4  1  0  0  0  0 
  4  5  1  0  0  0  0 
  5  6  1  0  0  0  0 
  6  7  1  0  0  0  0 
  7  8  1  0  0  0  0 
  8  9  1  0  0  0  0 
  9 10  1  0  0  0  0 
 10 11  1  0  0  0  0 
 11 12  1  0  0  0  0 
 12 13  1  0  0  0  0 
 13 14  1  0  0  0  0 
M  CHG  1   2   1
M  CHG  1  16  -1
M  END
> <CDK Fingerprint>
IgAACAABBAAAAAAAAgAAAEAAAAAAAAAAAAEAYQAAAAAAAAAAAAAAACAAAAACAAAAAAAAAMAAAAAAAAAACAAAQAAAAAAAAAGAAgAAACAAQAAAAAAAAAAAAAAAAAAAAUAAACAIIAAQAAAAAAAAAQAAAAgBBAAAAgAA

> <ActivityOutcome_CPDBAS_Rat>
inactive

$$$$

  CDK     0721101958

  5  4  0  0  0  0  0  0  0  0999 V2000
    3.4567   -1.9945    0.0000 C   0  0  0  0  0  4  0  0  0  0  0  0
    2.3056   -1.3308    0.0000 N   0  0  0  0  0  3  0  0  0  0  0  0
    1.1511   -1.9945    0.0000 C   0  0  0  0  0  4  0  0  0  0  0  0
    0.0000   -1.3308    0.0000 O   0  0  0  0  0  2  0  0  0  0  0  0
    2.3056    0.0000    0.0000 C   0  0  0  0  0  4  0  0  0  0  0  0
  1  2  1  0  0  0  0 
  2  3  1  0  0  0  0 
  2  5  1  0  0  0  0 
  3  4  2  0  0  0  0 
M  END
> <CDK Fingerprint>
YAAAAAAAAAAAAAAAAAAAAAAAAAAAAAAAAIAAAACAAAAAAAAAAAAAAAAAAAAAAAAAAAAAAAAAAAAAAAAAAAAAQAAAAAAAAAAAAAAAAAAAAAAAAEAAAAAAAAAAAgAA

> <ActivityOutcome_CPDBAS_Rat>
inactive

$$$$

  CDK     0721101958

  4  3  0  0  0  0  0  0  0  0999 V2000
    1.9950    0.0000    0.0000 C   0  0  0  0  0  4  0  0  0  0  0  0
    1.3292   -1.1518    0.0000 N   0  0  0  0  0  3  0  0  0  0  0  0
    1.9950   -2.3037    0.0000 C   0  0  0  0  0  4  0  0  0  0  0  0
    0.0000   -1.1518    0.0000 N   0  0  0  0  0  3  0  0  0  0  0  0
  1  2  1  0  0  0  0 
  2  3  1  0  0  0  0 
  2  4  1  0  0  0  0 
M  END
> <CDK Fingerprint>
YAAAAAAAAAAAAAAAAAAAAAAAAAAAAAAAAIAAAAAAAAAAAAAAAAAAAAAAAAAAAAAAAAAAAAAAAAAAAAAAAAAAACAAAAAAAAAAAAAAAAAAAAAAAAAAAAAAAAAAAwAA

> <ActivityOutcome_CPDBAS_Rat>
inactive

$$$$

  CDK     0721101958

 17 18  0  0  0  0  0  0  0  0999 V2000
    5.5607   -3.1807    0.0000 C   0  0  0  0  0  4  0  0  0  0  0  0
    6.4504   -2.2020    0.0000 N   0  0  0  0  0  3  0  0  0  0  0  0
    7.6626   -2.7359    0.0000 C   0  0  0  0  0  4  0  0  0  0  0  0
    7.5292   -4.0593    0.0000 S   0  0  0  0  0  2  0  0  0  0  0  0
    6.2280   -4.3373    0.0000 C   0  0  0  0  0  4  0  0  0  0  0  0
    8.8192   -2.0686    0.0000 N   0  0  0  0  0  3  0  0  0  0  0  0
    9.9647   -2.7359    0.0000 N   0  0  0  0  0  3  0  0  0  0  0  0
   11.1214   -2.0686    0.0000 C   0  0  0  0  0  4  0  0  0  0  0  0
    9.9647   -4.0704    0.0000 C   0  0  0  0  0  4  0  0  0  0  0  0
    4.2372   -3.0473    0.0000 C   0  0  0  0  0  4  0  0  0  0  0  0
    3.3475   -4.0371    0.0000 C   0  0  0  0  0  4  0  0  0  0  0  0
    2.1353   -3.4921    0.0000 C   0  0  0  0  0  4  0  0  0  0  0  0
    2.2688   -2.1687    0.0000 C   0  0  0  0  0  4  0  0  0  0  0  0
    3.5700   -1.8906    0.0000 O   0  0  0  0  0  2  0  0  0  0  0  0
    1.2901   -1.2790    0.0000 N   0  0  0  0  0  4  0  0  0  0  0  0
    0.0000   -1.6237    0.0000 O   0  0  0  0  0  1  0  0  0  0  0  0
    1.6237    0.0000    0.0000 O   0  0  0  0  0  2  0  0  0  0  0  0
  1  2  1  0  0  0  0 
  1  5  2  0  0  0  0 
  1 10  1  0  0  0  0 
  2  3  2  0  0  0  0 
  3  4  1  0  0  0  0 
  3  6  1  0  0  0  0 
  4  5  1  0  0  0  0 
  6  7  1  0  0  0  0 
  7  8  1  0  0  0  0 
  7  9  1  0  0  0  0 
 10 11  2  0  0  0  0 
 10 14  1  0  0  0  0 
 11 12  1  0  0  0  0 
 12 13  2  0  0  0  0 
 13 14  1  0  0  0  0 
 13 15  1  0  0  0  0 
 15 16  1  0  0  0  0 
 15 17  2  0  0  0  0 
M  CHG  1  15   1
M  CHG  1  16  -1
M  END
> <CDK Fingerprint>
CAAGB/jCQydgAJAIBZCUAAFKoKKQkRDBEAGAQQQsQEaAAJFkgAYABEAYlQACYQAApEBBAAIABAZAgoAAgAahAAFMAgJUBEASA1ACkEAsiEAQMAIFkAMECMWgBKAgiIgEYAFUIhUgpQD4oHIAQLCaAggAwEECgQIAAAkMggIDAIU=

> <ActivityOutcome_CPDBAS_Rat>
active

> <TD50_Rat_mmol>
0.00161

$$$$

  CDK     0721101958

  6  5  0  0  0  0  0  0  0  0999 V2000
    3.3250   -1.1509    0.0000 O   0  0  0  0  0  1  0  0  0  0  0  0
    1.9943   -1.1509    0.0000 N   0  0  0  0  0  4  0  0  0  0  0  0
    1.3307    0.0000    0.0000 O   0  0  0  0  0  2  0  0  0  0  0  0
    1.3307   -2.3053    0.0000 N   0  0  0  0  0  3  0  0  0  0  0  0
    1.9943   -3.4563    0.0000 C   0  0  0  0  0  4  0  0  0  0  0  0
    0.0000   -2.3053    0.0000 C   0  0  0  0  0  4  0  0  0  0  0  0
  1  2  1  0  0  0  0 
  2  3  2  0  0  0  0 
  2  4  1  0  0  0  0 
  4  5  1  0  0  0  0 
  4  6  1  0  0  0  0 
M  CHG  1   1  -1
M  CHG  1   2   1
M  END
> <CDK Fingerprint>
CAAAAAAAAAAAAAAAAAAAAAAAAAAEAAAAYAAAAQAAAAAAAAAAAAAAAQAEAAAAAAAAAIAAAAAAAAAAAAAAAAAAAAAAAAAAAAAAAAAAAAAAAAAAAAAAAAAABCAAAAAAAAAAAAAAAAAAAAAAAAAAAAAAAAAAAwAA

> <ActivityOutcome_CPDBAS_Rat>
active

> <TD50_Rat_mmol>
0.00607

$$$$

  CDK     0721101958

  5  4  0  0  0  0  0  0  0  0999 V2000
    3.4567   -1.9945    0.0000 C   0  0  0  0  0  4  0  0  0  0  0  0
    2.3056   -1.3308    0.0000 C   0  0  0  0  0  4  0  0  0  0  0  0
    1.1511   -1.9945    0.0000 C   0  0  0  0  0  4  0  0  0  0  0  0
    0.0000   -1.3308    0.0000 Cl  0  0  0  0  0  1  0  0  0  0  0  0
    2.3056    0.0000    0.0000 C   0  0  0  0  0  4  0  0  0  0  0  0
  1  2  1  0  0  0  0 
  2  3  2  0  0  0  0 
  2  5  1  0  0  0  0 
  3  4  1  0  0  0  0 
M  END
> <CDK Fingerprint>
QAAAAAAAAAAAAAAAAAAAAAAAAAAAAAAAAAAAAAAAAAAAAMAAAAAAAAAAAAAAAAAgAAAAAAAQAAAAQABAAAABAAAAAAAAAAAAAAAAAAAAAAAAAABAAAAAAAAAAAAAAAAAAAAAAAAAAAAAAAAAAAAAAAAAAAAAAAAAAAAAAAAAAA==

> <ActivityOutcome_CPDBAS_Rat>
active

> <TD50_Rat_mmol>
0.351

$$$$

  CDK     0721101958

 21 21  0  0  0  0  0  0  0  0999 V2000
    0.4767   -1.4763    0.0000 C   0  0  0  0  0  4  0  0  0  0  0  0
    1.1379   -2.6065    0.0000 S   0  0  0  0  0  6  0  0  0  0  0  0
    0.0000   -3.2678    0.0000 O   0  0  0  0  0  2  0  0  0  0  0  0
    2.2682   -1.9530    0.0000 O   0  0  0  0  0  2  0  0  0  0  0  0
    1.7915   -3.7445    0.0000 O   0  0  0  0  0  2  0  0  0  0  0  0
    3.0986   -3.7445    0.0000 C   0  0  0  0  0  4  0  0  0  0  0  0
    3.7598   -2.6065    0.0000 C   0  0  0  0  0  4  0  0  0  0  0  0
    5.0669   -2.6065    0.0000 C   0  0  0  0  0  4  0  0  0  0  0  0
    5.7205   -3.7445    0.0000 C   0  0  0  0  0  4  0  0  0  0  0  0
    5.0669   -4.8824    0.0000 C   0  0  0  0  0  4  0  0  0  0  0  0
    3.7598   -4.8824    0.0000 C   0  0  0  0  0  4  0  0  0  0  0  0
    3.0986   -6.0127    0.0000 C   0  0  0  0  0  4  0  0  0  0  0  0
    2.4451   -7.1506    0.0000 C   0  0  0  0  0  4  0  0  0  0  0  0
    1.9683   -5.3591    0.0000 C   0  0  0  0  0  4  0  0  0  0  0  0
    4.2366   -6.6739    0.0000 C   0  0  0  0  0  4  0  0  0  0  0  0
    7.0353   -3.7445    0.0000 N   0  0  0  0  0  4  0  0  0  0  0  0
    7.6888   -4.8824    0.0000 O   0  0  0  0  0  1  0  0  0  0  0  0
    7.6888   -2.6065    0.0000 O   0  0  0  0  0  2  0  0  0  0  0  0
    2.9064   -1.1379    0.0000 N   0  0  0  0  0  4  0  0  0  0  0  0
    1.5916   -1.1379    0.0000 O   0  0  0  0  0  2  0  0  0  0  0  0
    3.5599    0.0000    0.0000 O   0  0  0  0  0  1  0  0  0  0  0  0
  1  2  1  0  0  0  0 
  2  3  2  0  0  0  0 
  2  4  2  0  0  0  0 
  2  5  1  0  0  0  0 
  5  6  1  0  0  0  0 
  6  7  2  0  0  0  0 
  6 11  1  0  0  0  0 
  7  8  1  0  0  0  0 
  7 19  1  0  0  0  0 
  8  9  2  0  0  0  0 
  9 10  1  0  0  0  0 
  9 16  1  0  0  0  0 
 10 11  2  0  0  0  0 
 11 12  1  0  0  0  0 
 12 13  1  0  0  0  0 
 12 14  1  0  0  0  0 
 12 15  1  0  0  0  0 
 16 17  1  0  0  0  0 
 16 18  2  0  0  0  0 
 19 20  2  0  0  0  0 
 19 21  1  0  0  0  0 
M  CHG  1  16   1
M  CHG  1  17  -1
M  CHG  1  19   1
M  CHG  1  21  -1
M  END
> <CDK Fingerprint>
ARACgAAgAECqAAggBQAIAAQAoBhCAEA5AAAMAAcIAgNhAQQQEQCAAgBgAAAAIABgIAMEAABABAQAYBAAAEEOCAGQAFMBgAAAICAIgIEAAQACoAAgABiBAABCGIBAoABUAEAgIAAAwDAGQAgEAAAAFACAAAYQAAAAAAACMAA=

> <ActivityOutcome_CPDBAS_Rat>
inactive

$$$$

  CDK     0721101958

 16 16  0  0  0  0  0  0  0  0999 V2000
    2.3467   -3.9783    0.0000 C   0  0  0  0  0  4  0  0  0  0  0  0
    1.2706   -4.7629    0.0000 N   0  0  0  0  0  3  0  0  0  0  0  0
    3.4298   -4.7629    0.0000 C   0  0  0  0  0  4  0  0  0  0  0  0
    1.6802   -6.0334    0.0000 C   0  0  0  0  0  4  0  0  0  0  0  0
    3.0133   -6.0334    0.0000 N   0  0  0  0  0  3  0  0  0  0  0  0
    2.3467   -2.6592    0.0000 C   0  0  0  0  0  4  0  0  0  0  0  0
    1.2011   -1.9926    0.0000 N   0  0  0  0  0  3  0  0  0  0  0  0
    4.6796   -4.3532    0.0000 N   0  0  0  0  0  3  0  0  0  0  0  0
    4.9573   -3.0480    0.0000 C   0  0  0  0  0  4  0  0  0  0  0  0
    0.0000   -4.3532    0.0000 C   0  0  0  0  0  4  0  0  0  0  0  0
    3.4923   -1.9926    0.0000 O   0  0  0  0  0  2  0  0  0  0  0  0
    5.6724   -5.2489    0.0000 N   0  0  0  0  0  3  0  0  0  0  0  0
    1.1942   -0.6665    0.0000 N   0  0  0  0  0  3  0  0  0  0  0  0
    0.0555   -2.6592    0.0000 C   0  0  0  0  0  4  0  0  0  0  0  0
    2.3398    0.0000    0.0000 O   0  0  0  0  0  2  0  0  0  0  0  0
    6.9430   -4.8323    0.0000 O   0  0  0  0  0  2  0  0  0  0  0  0
  1  2  1  0  0  0  0 
  1  6  1  0  0  0  0 
  1  3  2  0  0  0  0 
  2  4  1  0  0  0  0 
  2 10  1  0  0  0  0 
  3  5  1  0  0  0  0 
  3  8  1  0  0  0  0 
  4  5  2  0  0  0  0 
  6  7  1  0  0  0  0 
  6 11  2  0  0  0  0 
  7 13  1  0  0  0  0 
  7 14  1  0  0  0  0 
  8  9  1  0  0  0  0 
  8 12  1  0  0  0  0 
 12 16  2  0  0  0  0 
 13 15  2  0  0  0  0 
M  END
> <CDK Fingerprint>
ECAIEiCCihUCAKAgAAHlAAAAYYAAAAAABABgABTEMARTCATgAEwGAAAAAiAAAGAhYAgdhgACCAJIAQAAgAIAEtExAAAWAEAAQECkQABAAJIAYBAAAEFADCAEAEJAAJgEEAhEMkRIShUAiAAECaABAAQAACIAUKBAAAACAsELAQI=

> <ActivityOutcome_CPDBAS_Rat>
active

> <TD50_Rat_mmol>
0.000809

$$$$

  CDK     0721101958

 11 11  0  0  0  0  0  0  0  0999 V2000
    0.0000   -2.6447    0.0000 O   0  0  0  0  0  2  0  0  0  0  0  0
    0.6630   -1.4989    0.0000 N   0  0  0  0  0  3  0  0  0  0  0  0
    1.9961   -1.4989    0.0000 N   0  0  0  0  0  3  0  0  0  0  0  0
    2.5726   -0.2955    0.0000 C   0  0  0  0  0  4  0  0  0  0  0  0
    3.8697    0.0000    0.0000 C   0  0  0  0  0  4  0  0  0  0  0  0
    4.9074   -0.8287    0.0000 N   0  0  0  0  0  3  0  0  0  0  0  0
    6.1036   -0.2522    0.0000 N   0  0  0  0  0  3  0  0  0  0  0  0
    7.2062   -1.0017    0.0000 O   0  0  0  0  0  2  0  0  0  0  0  0
    2.5726   -2.6951    0.0000 C   0  0  0  0  0  4  0  0  0  0  0  0
    3.8697   -2.9906    0.0000 C   0  0  0  0  0  4  0  0  0  0  0  0
    4.9074   -2.1619    0.0000 C   0  0  0  0  0  4  0  0  0  0  0  0
  1  2  2  0  0  0  0 
  2  3  1  0  0  0  0 
  3  4  1  0  0  0  0 
  3  9  1  0  0  0  0 
  4  5  1  0  0  0  0 
  5  6  1  0  0  0  0 
  6  7  1  0  0  0  0 
  6 11  1  0  0  0  0 
  7  8  2  0  0  0  0 
  9 10  1  0  0  0  0 
 10 11  1  0  0  0  0 
M  END
> <CDK Fingerprint>
EAAAAAAAAgAAAAABgAAAEAAAABgCAAAAAAAAAAAEhQABYAAABAAAAAAAAAAKQCAAERAAAAAAEAAAAMAEAAAAAAAAAACRAAAAAAAAAADAAAAAACQAAAAAAAAAAAAIAAAEBCgAAAAMEBAgAAAAAAAAAAAAAAAQAAAAAAAwAwAA

> <ActivityOutcome_CPDBAS_Rat>
active

> <TD50_Rat_mmol>
0.000389

$$$$

  CDK     0721101958

 13 14  0  0  0  0  0  0  0  0999 V2000
    0.0000   -1.6036    0.0000 O   0  0  0  0  0  2  0  0  0  0  0  0
    1.1114   -0.9605    0.0000 N   0  0  0  0  0  3  0  0  0  0  0  0
    2.2148   -1.5718    0.0000 N   0  0  0  0  0  3  0  0  0  0  0  0
    2.6832   -0.5319    0.0000 C   0  0  0  0  0  4  0  0  0  0  0  0
    3.7152    0.0000    0.0000 N   0  0  0  0  0  3  0  0  0  0  0  0
    4.9377   -0.3572    0.0000 C   0  0  0  0  0  4  0  0  0  0  0  0
    5.5410   -1.2860    0.0000 N   0  0  0  0  0  3  0  0  0  0  0  0
    5.3981   -2.5720    0.0000 C   0  0  0  0  0  4  0  0  0  0  0  0
    4.1835   -3.0721    0.0000 N   0  0  0  0  0  3  0  0  0  0  0  0
    2.8261   -2.7864    0.0000 C   0  0  0  0  0  4  0  0  0  0  0  0
    4.6122   -1.4289    0.0000 C   0  0  0  0  0  4  0  0  0  0  0  0
    6.7952   -0.9288    0.0000 N   0  0  0  0  0  3  0  0  0  0  0  0
    7.9384   -1.6432    0.0000 O   0  0  0  0  0  2  0  0  0  0  0  0
  1  2  2  0  0  0  0 
  2  3  1  0  0  0  0 
  3  4  1  0  0  0  0 
  3 10  1  0  0  0  0 
  4  5  1  0  0  0  0 
  5  6  1  0  0  0  0 
  5 11  1  0  0  0  0 
  6  7  1  0  0  0  0 
  7  8  1  0  0  0  0 
  7 12  1  0  0  0  0 
  8  9  1  0  0  0  0 
  9 10  1  0  0  0  0 
  9 11  1  0  0  0  0 
 12 13  2  0  0  0  0 
M  END
> <CDK Fingerprint>
AUAAAAQAAAAAEABIAAAAAAAAAAAMAAAoAAAAAAAAAAQEAAhiAAAAQAAAAAAAAQAAAAABAAIAAAAAAAAAgAAAAAAAAAAAAAAAAAAAAADAAAAIAAAAAAAAAAAAAIAAAAAAAAAEIAAAAAAAAAAAAAAAAAAAQAAAAEAAQAAAAAADAAA=

> <ActivityOutcome_CPDBAS_Rat>
inactive

$$$$

  CDK     0721101958

 13 13  0  0  0  0  0  0  0  0999 V2000
    3.4548   -3.9869    0.0000 C   0  0  0  0  0  4  0  0  0  0  0  0
    3.4548   -2.6602    0.0000 C   0  0  0  0  0  4  0  0  0  0  0  0
    2.3009   -1.9900    0.0000 C   0  0  0  0  0  4  0  0  0  0  0  0
    2.3009   -0.6633    0.0000 C   0  0  0  0  0  4  0  0  0  0  0  0
    3.4548    0.0000    0.0000 C   0  0  0  0  0  4  0  0  0  0  0  0
    4.6088   -0.6633    0.0000 C   0  0  0  0  0  4  0  0  0  0  0  0
    4.6088   -1.9900    0.0000 C   0  0  0  0  0  4  0  0  0  0  0  0
    5.7558   -2.6602    0.0000 N   0  0  0  0  0  4  0  0  0  0  0  0
    5.7558   -3.9869    0.0000 O   0  0  0  0  0  2  0  0  0  0  0  0
    6.9097   -1.9900    0.0000 O   0  0  0  0  0  1  0  0  0  0  0  0
    1.1539   -2.6602    0.0000 N   0  0  0  0  0  4  0  0  0  0  0  0
    1.1539   -3.9869    0.0000 O   0  0  0  0  0  2  0  0  0  0  0  0
    0.0000   -1.9900    0.0000 O   0  0  0  0  0  1  0  0  0  0  0  0
  1  2  1  0  0  0  0 
  2  3  2  0  0  0  0 
  2  7  1  0  0  0  0 
  3  4  1  0  0  0  0 
  3 11  1  0  0  0  0 
  4  5  2  0  0  0  0 
  5  6  1  0  0  0  0 
  6  7  2  0  0  0  0 
  7  8  1  0  0  0  0 
  8  9  2  0  0  0  0 
  8 10  1  0  0  0  0 
 11 12  2  0  0  0  0 
 11 13  1  0  0  0  0 
M  CHG  1   8   1
M  CHG  1  10  -1
M  CHG  1  11   1
M  CHG  1  13  -1
M  END
> <CDK Fingerprint>
EAIAACIAIAgAAAAEAAgAAAAAGEAAQAAAAAQABgAAAGABBAAAAAAAAAgAAABgAAAAAgAAAEAEAAAAAAAAAAQAAQAAQACAAAAAAAiAAQAAAAAAACAAEIAAAAAQgAAgAAQAQCAAAABAIAJAAAAAAAAAAIAABBAAAAAAAAIQAA==

> <ActivityOutcome_CPDBAS_Rat>
active

> <TD50_Rat_mmol>
0.0016

$$$$

  CDK     0721101958

 13 13  0  0  0  0  0  0  0  0999 V2000
    5.7563    0.0000    0.0000 C   0  0  0  0  0  4  0  0  0  0  0  0
    4.6092   -0.6634    0.0000 C   0  0  0  0  0  4  0  0  0  0  0  0
    4.6092   -1.9902    0.0000 C   0  0  0  0  0  4  0  0  0  0  0  0
    3.4552   -2.6605    0.0000 C   0  0  0  0  0  4  0  0  0  0  0  0
    2.3011   -1.9902    0.0000 C   0  0  0  0  0  4  0  0  0  0  0  0
    2.3011   -0.6634    0.0000 C   0  0  0  0  0  4  0  0  0  0  0  0
    3.4552    0.0000    0.0000 C   0  0  0  0  0  4  0  0  0  0  0  0
    1.1540   -2.6605    0.0000 N   0  0  0  0  0  4  0  0  0  0  0  0
    1.1540   -3.9873    0.0000 O   0  0  0  0  0  2  0  0  0  0  0  0
    0.0000   -1.9902    0.0000 O   0  0  0  0  0  1  0  0  0  0  0  0
    5.7563   -2.6605    0.0000 N   0  0  0  0  0  4  0  0  0  0  0  0
    5.7563   -3.9873    0.0000 O   0  0  0  0  0  2  0  0  0  0  0  0
    6.9103   -1.9902    0.0000 O   0  0  0  0  0  1  0  0  0  0  0  0
  1  2  1  0  0  0  0 
  2  3  2  0  0  0  0 
  2  7  1  0  0  0  0 
  3  4  1  0  0  0  0 
  3 11  1  0  0  0  0 
  4  5  2  0  0  0  0 
  5  6  1  0  0  0  0 
  5  8  1  0  0  0  0 
  6  7  2  0  0  0  0 
  8  9  2  0  0  0  0 
  8 10  1  0  0  0  0 
 11 12  2  0  0  0  0 
 11 13  1  0  0  0  0 
M  CHG  1   8   1
M  CHG  1  10  -1
M  CHG  1  11   1
M  CHG  1  13  -1
M  END
> <CDK Fingerprint>
EAIAACIAIAgAAAAEAAgAAAAAGEEAQABAAAQABgAAAGABBAAAAAAAAAgAAABgAAAAAgAAAEAEAAAAAAAAAAQAAQAAQACAAAAAAAiAAQAAAAAAACAAEIAAAAAQgAAgAAQAQCAAAABAIAJAgAAAAAAAAIAABBAAAAAAAAIQAA==

> <ActivityOutcome_CPDBAS_Rat>
inactive

$$$$

  CDK     0721101958

  6  6  0  0  0  0  0  0  0  0999 V2000
    2.3036   -1.9950    0.0000 C   0  0  0  0  0  4  0  0  0  0  0  0
    1.1518   -2.6600    0.0000 C   0  0  0  0  0  4  0  0  0  0  0  0
    0.0000   -1.9950    0.0000 O   0  0  0  0  0  2  0  0  0  0  0  0
    0.0000   -0.6650    0.0000 C   0  0  0  0  0  4  0  0  0  0  0  0
    1.1518    0.0000    0.0000 C   0  0  0  0  0  4  0  0  0  0  0  0
    2.3036   -0.6650    0.0000 O   0  0  0  0  0  2  0  0  0  0  0  0
  1  2  1  0  0  0  0 
  1  6  1  0  0  0  0 
  2  3  1  0  0  0  0 
  3  4  1  0  0  0  0 
  4  5  1  0  0  0  0 
  5  6  1  0  0  0  0 
M  END
> <CDK Fingerprint>
AgAAAAAAAAAAAAAAAIAAAAEAAAAAAAAAYACAAAAAAAAAAAAACCACAAAAAAAAAAAAAAAAAAAAAAAAAAAAAAAAAAAAAAAAAAAAAAAgAAAAABAAAABAAAAAAAAAAAAAAAAAAAAAAAAAAAAAAAAAAAAAAAAAAAAA

> <ActivityOutcome_CPDBAS_Rat>
active

> <TD50_Rat_mmol>
3.03

$$$$

  CDK     0721101958

 24 24  0  0  0  0  0  0  0  0999 V2000
    7.3016   -4.7827    0.0000 S   0  0  0  0  0  2  0  0  0  0  0  0
    7.3016   -3.4542    0.0000 P   0  0  0  0  0  5  0  0  0  0  0  0
    5.9837   -3.4542    0.0000 S   0  0  0  0  0  2  0  0  0  0  0  0
    5.3141   -2.2957    0.0000 C   0  0  0  0  0  4  0  0  0  0  0  0
    3.9856   -2.2957    0.0000 C   0  0  0  0  0  4  0  0  0  0  0  0
    3.3160   -3.4542    0.0000 S   0  0  0  0  0  2  0  0  0  0  0  0
    1.9875   -3.4542    0.0000 P   0  0  0  0  0  5  0  0  0  0  0  0
    1.9875   -2.1150    0.0000 S   0  0  0  0  0  2  0  0  0  0  0  0
    1.9875   -4.7827    0.0000 O   0  0  0  0  0  2  0  0  0  0  0  0
    3.1460   -5.4417    0.0000 C   0  0  0  0  0  4  0  0  0  0  0  0
    3.1460   -6.7702    0.0000 C   0  0  0  0  0  4  0  0  0  0  0  0
    0.6590   -3.4542    0.0000 O   0  0  0  0  0  2  0  0  0  0  0  0
    0.0000   -4.6020    0.0000 C   0  0  0  0  0  4  0  0  0  0  0  0
    0.6590   -5.7499    0.0000 C   0  0  0  0  0  4  0  0  0  0  0  0
    3.3160   -1.1479    0.0000 O   0  0  0  0  0  2  0  0  0  0  0  0
    3.9856    0.0000    0.0000 C   0  0  0  0  0  4  0  0  0  0  0  0
    5.3141    0.0000    0.0000 C   0  0  0  0  0  4  0  0  0  0  0  0
    5.9837   -1.1479    0.0000 O   0  0  0  0  0  2  0  0  0  0  0  0
    7.3016   -2.1150    0.0000 O   0  0  0  0  0  2  0  0  0  0  0  0
    8.4601   -1.4561    0.0000 C   0  0  0  0  0  4  0  0  0  0  0  0
    8.4601   -0.1275    0.0000 C   0  0  0  0  0  4  0  0  0  0  0  0
    8.6408   -3.4542    0.0000 O   0  0  0  0  0  2  0  0  0  0  0  0
    9.2997   -4.6020    0.0000 C   0  0  0  0  0  4  0  0  0  0  0  0
   10.6283   -4.6020    0.0000 C   0  0  0  0  0  4  0  0  0  0  0  0
  1  2  2  0  0  0  0 
  2  3  1  0  0  0  0 
  2 19  1  0  0  0  0 
  2 22  1  0  0  0  0 
  3  4  1  0  0  0  0 
  4  5  1  0  0  0  0 
  4 18  1  0  0  0  0 
  5  6  1  0  0  0  0 
  5 15  1  0  0  0  0 
  6  7  1  0  0  0  0 
  7  8  2  0  0  0  0 
  7  9  1  0  0  0  0 
  7 12  1  0  0  0  0 
  9 10  1  0  0  0  0 
 10 11  1  0  0  0  0 
 12 13  1  0  0  0  0 
 13 14  1  0  0  0  0 
 15 16  1  0  0  0  0 
 16 17  1  0  0  0  0 
 17 18  1  0  0  0  0 
 19 20  1  0  0  0  0 
 20 21  1  0  0  0  0 
 22 23  1  0  0  0  0 
 23 24  1  0  0  0  0 
M  END
> <CDK Fingerprint>
AMgIAAIwAAQAAAAMAgAAAAAAAEAAgCAAqIAAAAECCAAAAAQBYAiAAAAMAIAAEAAkiHACAAYAAAAAAAwEAABAAwAga5BAEEgAAABIIAAAAgkQAAFAAoAsAAACBRACAARAAAAARCAAAAQIAgAQAAACBAAAIgAAQAAAQAAAQRFAAAIB

> <ActivityOutcome_CPDBAS_Rat>
inactive

$$$$

  CDK     0721101958

 13 12  0  0  0  0  0  0  0  0999 V2000
    7.3155    0.0000    0.0000 O   0  0  0  0  0  2  0  0  0  0  0  0
    5.9881    0.0000    0.0000 N   0  0  0  0  0  3  0  0  0  0  0  0
    5.3195   -1.1577    0.0000 N   0  0  0  0  0  3  0  0  0  0  0  0
    5.9881   -2.3054    0.0000 C   0  0  0  0  0  4  0  0  0  0  0  0
    7.3155   -2.3054    0.0000 C   0  0  0  0  0  4  0  0  0  0  0  0
    7.9842   -3.4631    0.0000 C   0  0  0  0  0  4  0  0  0  0  0  0
    9.3116   -3.4631    0.0000 C   0  0  0  0  0  4  0  0  0  0  0  0
    9.9802   -4.6109    0.0000 C   0  0  0  0  0  4  0  0  0  0  0  0
    3.9921   -1.1577    0.0000 C   0  0  0  0  0  4  0  0  0  0  0  0
    3.3234   -2.3054    0.0000 C   0  0  0  0  0  4  0  0  0  0  0  0
    1.9960   -2.3054    0.0000 C   0  0  0  0  0  4  0  0  0  0  0  0
    1.3274   -3.4631    0.0000 C   0  0  0  0  0  4  0  0  0  0  0  0
    0.0000   -3.4631    0.0000 C   0  0  0  0  0  4  0  0  0  0  0  0
  1  2  2  0  0  0  0 
  2  3  1  0  0  0  0 
  3  4  1  0  0  0  0 
  3  9  1  0  0  0  0 
  4  5  1  0  0  0  0 
  5  6  1  0  0  0  0 
  6  7  1  0  0  0  0 
  7  8  1  0  0  0  0 
  9 10  1  0  0  0  0 
 10 11  1  0  0  0  0 
 11 12  1  0  0  0  0 
 12 13  1  0  0  0  0 
M  END
> <CDK Fingerprint>
EAAAAAAAAgAAEAABgAABAAAAABAAAAAAAAAAAAAEAQEAYAAEAAAAAAAACAAAECAAEQAAAAAAAABAAMAAAAAAAAAAAAAAQAAAAAAAAACAAAAAACAAQAAAAAAAAAAAAABABCAAAQAIAAgAIAAQAAAAAAAAAAAAAAAAAAAAAwgA

> <ActivityOutcome_CPDBAS_Rat>
active

> <TD50_Rat_mmol>
0.0216

$$$$

  CDK     0721101958

 20 22  0  0  0  0  0  0  0  0999 V2000
    8.0649   -2.6614    0.0000 N   0  0  0  0  0  3  0  0  0  0  0  0
    6.9128   -1.9932    0.0000 C   0  0  0  0  0  4  0  0  0  0  0  0
    5.7606   -2.6614    0.0000 C   0  0  0  0  0  4  0  0  0  0  0  0
    4.6085   -1.9932    0.0000 C   0  0  0  0  0  4  0  0  0  0  0  0
    4.6085   -0.6682    0.0000 C   0  0  0  0  0  4  0  0  0  0  0  0
    5.7606    0.0000    0.0000 C   0  0  0  0  0  4  0  0  0  0  0  0
    6.9128   -0.6682    0.0000 C   0  0  0  0  0  4  0  0  0  0  0  0
    3.4564    0.0000    0.0000 N   0  0  0  0  0  3  0  0  0  0  0  0
    2.3043   -0.6682    0.0000 C   0  0  0  0  0  4  0  0  0  0  0  0
    2.3043   -1.9932    0.0000 C   0  0  0  0  0  4  0  0  0  0  0  0
    1.1521   -2.6614    0.0000 C   0  0  0  0  0  4  0  0  0  0  0  0
    0.0000   -1.9932    0.0000 C   0  0  0  0  0  4  0  0  0  0  0  0
    0.0000   -0.6682    0.0000 C   0  0  0  0  0  4  0  0  0  0  0  0
    1.1521    0.0000    0.0000 C   0  0  0  0  0  4  0  0  0  0  0  0
    9.2170   -1.9932    0.0000 C   0  0  0  0  0  4  0  0  0  0  0  0
    9.2170   -0.6682    0.0000 C   0  0  0  0  0  4  0  0  0  0  0  0
   10.3692    0.0000    0.0000 C   0  0  0  0  0  4  0  0  0  0  0  0
   11.5213   -0.6682    0.0000 C   0  0  0  0  0  4  0  0  0  0  0  0
   11.5213   -1.9932    0.0000 C   0  0  0  0  0  4  0  0  0  0  0  0
   10.3692   -2.6614    0.0000 C   0  0  0  0  0  4  0  0  0  0  0  0
  1  2  1  0  0  0  0 
  1 15  1  0  0  0  0 
  2  3  2  0  0  0  0 
  2  7  1  0  0  0  0 
  3  4  1  0  0  0  0 
  4  5  2  0  0  0  0 
  5  6  1  0  0  0  0 
  5  8  1  0  0  0  0 
  6  7  2  0  0  0  0 
  8  9  1  0  0  0  0 
  9 10  2  0  0  0  0 
  9 14  1  0  0  0  0 
 10 11  1  0  0  0  0 
 11 12  2  0  0  0  0 
 12 13  1  0  0  0  0 
 13 14  2  0  0  0  0 
 15 16  2  0  0  0  0 
 15 20  1  0  0  0  0 
 16 17  1  0  0  0  0 
 17 18  2  0  0  0  0 
 18 19  1  0  0  0  0 
 19 20  2  0  0  0  0 
M  END
> <CDK Fingerprint>
IAAAAACAAAAAAAAAAAAIQBAAAAAABEACQAAAYAAAAAAAAAAAAAAAAAAABAAAAAYAQAAAAIAEAABAAAAABCAAAAAAAAAAAAAACCAAABAAAEAAAAAAAAAAACABAAAAIAAAAAAAAgAAAAAAAAAAgAAAAAAAAABAChCA

> <ActivityOutcome_CPDBAS_Rat>
inactive

$$$$

  CDK     0721101958

 19 21  0  0  0  0  0  0  0  0999 V2000
    3.2769   -5.7981    0.0000 O   0  0  0  0  0  2  0  0  0  0  0  0
    4.0538   -4.7247    0.0000 C   0  0  0  0  0  4  0  0  0  0  0  0
    3.6441   -3.4535    0.0000 C   0  0  0  0  0  4  0  0  0  0  0  0
    2.4294   -3.9973    0.0000 C   0  0  0  0  0  4  0  0  0  0  0  0
    2.2882   -5.3179    0.0000 C   0  0  0  0  0  4  0  0  0  0  0  0
    1.0735   -5.8617    0.0000 C   0  0  0  0  0  4  0  0  0  0  0  0
    0.0000   -5.0778    0.0000 C   0  0  0  0  0  4  0  0  0  0  0  0
    0.1412   -3.7571    0.0000 C   0  0  0  0  0  4  0  0  0  0  0  0
    1.3560   -3.2133    0.0000 C   0  0  0  0  0  4  0  0  0  0  0  0
    2.9803   -2.3023    0.0000 C   0  0  0  0  0  4  0  0  0  0  0  0
    1.6526   -2.3023    0.0000 C   0  0  0  0  0  4  0  0  0  0  0  0
    0.9817   -1.1512    0.0000 C   0  0  0  0  0  4  0  0  0  0  0  0
    1.6526    0.0000    0.0000 C   0  0  0  0  0  4  0  0  0  0  0  0
    2.9803    0.0000    0.0000 C   0  0  0  0  0  4  0  0  0  0  0  0
    3.6441   -1.1512    0.0000 C   0  0  0  0  0  4  0  0  0  0  0  0
    4.7247   -2.6766    0.0000 N   0  0  0  0  0  3  0  0  0  0  0  0
    5.7981   -3.4535    0.0000 C   0  0  0  0  0  4  0  0  0  0  0  0
    7.0623   -3.0438    0.0000 O   0  0  0  0  0  2  0  0  0  0  0  0
    5.3885   -4.7247    0.0000 N   0  0  0  0  0  3  0  0  0  0  0  0
  1  2  2  0  0  0  0 
  2  3  1  0  0  0  0 
  2 19  1  0  0  0  0 
  3  4  1  0  0  0  0 
  3 10  1  0  0  0  0 
  3 16  1  0  0  0  0 
  4  5  2  0  0  0  0 
  4  9  1  0  0  0  0 
  5  6  1  0  0  0  0 
  6  7  2  0  0  0  0 
  7  8  1  0  0  0  0 
  8  9  2  0  0  0  0 
 10 11  2  0  0  0  0 
 10 15  1  0  0  0  0 
 11 12  1  0  0  0  0 
 12 13  2  0  0  0  0 
 13 14  1  0  0  0  0 
 14 15  2  0  0  0  0 
 16 17  1  0  0  0  0 
 17 18  2  0  0  0  0 
 17 19  1  0  0  0  0 
M  END
> <CDK Fingerprint>
IAAAEACAQhAEUgKBCAAQIRAIAAACAAACAAAAQAQkCAAAYAAACIAAAACAAgQBQCACQAQCQAAAQAEEANQAAAGABAwgAEAAAQIIEgAAACCACAAAACAAAAABggAAAADAACAAQABAJQQAAAAAAsAABAHAAFYAiFIARQAAgQAgAgAA

> <ActivityOutcome_CPDBAS_Rat>
inactive

$$$$

  CDK     0721101958

 22 23  0  0  0  0  0  0  0  0999 V2000
    5.3209   -1.1452    0.0000 N   0  0  0  0  0  3  0  0  0  0  0  0
    5.9912   -2.3043    0.0000 N   0  0  0  0  0  3  0  0  0  0  0  0
    7.3179   -2.3043    0.0000 C   0  0  0  0  0  4  0  0  0  0  0  0
    7.9743   -1.1452    0.0000 C   0  0  0  0  0  4  0  0  0  0  0  0
    9.3150   -1.1452    0.0000 C   0  0  0  0  0  4  0  0  0  0  0  0
    9.9714   -2.3043    0.0000 C   0  0  0  0  0  4  0  0  0  0  0  0
    9.3150   -3.4495    0.0000 C   0  0  0  0  0  4  0  0  0  0  0  0
    7.9743   -3.4495    0.0000 C   0  0  0  0  0  4  0  0  0  0  0  0
   11.3121   -2.3043    0.0000 N   0  0  0  0  0  3  0  0  0  0  0  0
   11.9684   -3.4495    0.0000 C   0  0  0  0  0  4  0  0  0  0  0  0
   13.2952   -3.4495    0.0000 C   0  0  0  0  0  4  0  0  0  0  0  0
   13.9655   -2.3043    0.0000 C   0  0  0  0  0  4  0  0  0  0  0  0
   11.9684   -1.1452    0.0000 C   0  0  0  0  0  4  0  0  0  0  0  0
   13.2952   -1.1452    0.0000 C   0  0  0  0  0  4  0  0  0  0  0  0
   13.9655    0.0000    0.0000 C   0  0  0  0  0  4  0  0  0  0  0  0
    3.9941   -1.1452    0.0000 C   0  0  0  0  0  4  0  0  0  0  0  0
    3.3238   -2.3043    0.0000 C   0  0  0  0  0  4  0  0  0  0  0  0
    1.9971   -2.3043    0.0000 C   0  0  0  0  0  4  0  0  0  0  0  0
    1.3267   -1.1452    0.0000 N   0  0  0  0  0  4  0  0  0  0  0  0
    1.9971    0.0000    0.0000 C   0  0  0  0  0  4  0  0  0  0  0  0
    3.3238    0.0000    0.0000 C   0  0  0  0  0  4  0  0  0  0  0  0
    0.0000   -1.1452    0.0000 O   0  0  0  0  0  1  0  0  0  0  0  0
  1  2  2  0  0  0  0 
  1 16  1  0  0  0  0 
  2  3  1  0  0  0  0 
  3  4  2  0  0  0  0 
  3  8  1  0  0  0  0 
  4  5  1  0  0  0  0 
  5  6  2  0  0  0  0 
  6  7  1  0  0  0  0 
  6  9  1  0  0  0  0 
  7  8  2  0  0  0  0 
  9 10  1  0  0  0  0 
  9 13  1  0  0  0  0 
 10 11  1  0  0  0  0 
 11 12  1  0  0  0  0 
 13 14  1  0  0  0  0 
 14 15  1  0  0  0  0 
 16 17  2  0  0  0  0 
 16 21  1  0  0  0  0 
 17 18  1  0  0  0  0 
 18 19  2  0  0  0  0 
 19 20  1  0  0  0  0 
 19 22  1  0  0  0  0 
 20 21  2  0  0  0  0 
M  CHG  1  19   1
M  CHG  1  22  -1
M  END
> <CDK Fingerprint>
EAIAkUIAIgAIDAABQAUCAABAgQAAQBEIQAgABEgSgAAAaBAEQAAAAAAAAEIAiCAAFAAAAAMAQgQECMAEIBBBAgAHAAAAACAAAAEAgACQAIAAACAAAAQAICAABAAAgCAAAAIAIAAAIAAABgAAAAgARABAgAACAACAEAAAAxiA

> <ActivityOutcome_CPDBAS_Rat>
inactive

$$$$

  CDK     0721101958

  8  7  0  0  0  0  0  0  0  0999 V2000
    5.7628   -1.9939    0.0000 N   0  0  0  0  0  3  0  0  0  0  0  0
    4.6103   -1.3312    0.0000 C   0  0  0  0  0  4  0  0  0  0  0  0
    4.6103    0.0000    0.0000 S   0  0  0  0  0  2  0  0  0  0  0  0
    3.4577   -1.9939    0.0000 N   0  0  0  0  0  3  0  0  0  0  0  0
    2.3051   -1.3312    0.0000 N   0  0  0  0  0  3  0  0  0  0  0  0
    1.1526   -1.9939    0.0000 C   0  0  0  0  0  4  0  0  0  0  0  0
    1.1526   -3.3252    0.0000 S   0  0  0  0  0  2  0  0  0  0  0  0
    0.0000   -1.3312    0.0000 N   0  0  0  0  0  3  0  0  0  0  0  0
  1  2  1  0  0  0  0 
  2  3  2  0  0  0  0 
  2  4  1  0  0  0  0 
  4  5  1  0  0  0  0 
  5  6  1  0  0  0  0 
  6  7  2  0  0  0  0 
  6  8  1  0  0  0  0 
M  END
> <CDK Fingerprint>
AIAAAAAAAAAAABAACBAAAAAAAAAAAAAAAAAAAAAAAABAAAgBYAAAAAAAAAAAAAQAAAAAAAAAAAAAAAAAAAAAAAAAAAAAAAAAAAAAAAAAAAAAAAAAAAAAAAAAEAAAAAAAAAAAACAAAAAAAAAAAAAAAAAAAAAAAAAAAAABAQAAAwCA

> <ActivityOutcome_CPDBAS_Rat>
inactive

$$$$

  CDK     0721101958

  6  5  0  0  0  0  0  0  0  0999 V2000
    3.3250   -1.1509    0.0000 N   0  0  0  0  0  3  0  0  0  0  0  0
    1.9943   -1.1509    0.0000 C   0  0  0  0  0  4  0  0  0  0  0  0
    1.3307    0.0000    0.0000 S   0  0  0  0  0  2  0  0  0  0  0  0
    1.3307   -2.3053    0.0000 C   0  0  0  0  0  4  0  0  0  0  0  0
    1.9943   -3.4563    0.0000 S   0  0  0  0  0  2  0  0  0  0  0  0
    0.0000   -2.3053    0.0000 N   0  0  0  0  0  3  0  0  0  0  0  0
  1  2  1  0  0  0  0 
  2  3  2  0  0  0  0 
  2  4  1  0  0  0  0 
  4  5  2  0  0  0  0 
  4  6  1  0  0  0  0 
M  END
> <CDK Fingerprint>
AgAAAAABAAAAAAAAAAAAAAAAAAAAAAAAAAABYAAAAAAAAAAAAAAAACAAAAAAAAAAAAAAAAAAAAAAAAAAAAAAAAAAAAAAAAAAAAAAAAAAAAAAEAAAAAAAAAAAAAAAAAAAACAAAAAAABAAAAAAAAAAAAAAAUAAAgAA

> <ActivityOutcome_CPDBAS_Rat>
inactive

$$$$

  CDK     0721101958

 27 27  0  0  0  0  0  0  0  0999 V2000
   16.6218   -1.9850    0.0000 C   0  0  0  0  0  4  0  0  0  0  0  0
   17.8449   -1.4436    0.0000 O   0  0  0  0  0  2  0  0  0  0  0  0
   16.7621   -3.3083    0.0000 C   0  0  0  0  0  4  0  0  0  0  0  0
   18.7271   -2.4462    0.0000 C   0  0  0  0  0  4  0  0  0  0  0  0
   18.0654   -3.5890    0.0000 C   0  0  0  0  0  4  0  0  0  0  0  0
   15.7797   -4.2106    0.0000 O   0  0  0  0  0  2  0  0  0  0  0  0
   18.6068   -4.8121    0.0000 O   0  0  0  0  0  2  0  0  0  0  0  0
   20.0504   -2.3058    0.0000 O   0  0  0  0  0  2  0  0  0  0  0  0
   15.4789   -1.3233    0.0000 C   0  0  0  0  0  4  0  0  0  0  0  0
   14.3160   -1.9850    0.0000 C   0  0  0  0  0  4  0  0  0  0  0  0
   15.4789    0.0000    0.0000 O   0  0  0  0  0  2  0  0  0  0  0  0
   13.1731   -1.3233    0.0000 O   0  0  0  0  0  2  0  0  0  0  0  0
   14.5165   -3.7895    0.0000 C   0  0  0  0  0  4  0  0  0  0  0  0
   13.5140   -4.6918    0.0000 C   0  0  0  0  0  4  0  0  0  0  0  0
   12.2508   -4.2707    0.0000 C   0  0  0  0  0  4  0  0  0  0  0  0
   11.2683   -5.1730    0.0000 C   0  0  0  0  0  4  0  0  0  0  0  0
   13.7947   -5.9951    0.0000 O   0  0  0  0  0  2  0  0  0  0  0  0
   10.0052   -4.7519    0.0000 C   0  0  0  0  0  4  0  0  0  0  0  0
    9.0227   -5.6342    0.0000 C   0  0  0  0  0  4  0  0  0  0  0  0
    7.7395   -5.2332    0.0000 C   0  0  0  0  0  4  0  0  0  0  0  0
    6.7570   -6.1154    0.0000 C   0  0  0  0  0  4  0  0  0  0  0  0
    5.4938   -5.7144    0.0000 C   0  0  0  0  0  4  0  0  0  0  0  0
    4.5113   -6.5966    0.0000 C   0  0  0  0  0  4  0  0  0  0  0  0
    3.2482   -6.1956    0.0000 C   0  0  0  0  0  4  0  0  0  0  0  0
    2.2456   -7.0778    0.0000 C   0  0  0  0  0  4  0  0  0  0  0  0
    0.9825   -6.6768    0.0000 C   0  0  0  0  0  4  0  0  0  0  0  0
    0.0000   -7.5590    0.0000 C   0  0  0  0  0  4  0  0  0  0  0  0
  1  2  1  1  0  0  0 
  1  3  1  0  0  0  0 
  1  9  1  0  0  0  0 
  2  4  1  0  0  0  0 
  3  5  2  0  0  0  0 
  3  6  1  0  0  0  0 
  4  5  1  0  0  0  0 
  4  8  2  0  0  0  0 
  5  7  1  0  0  0  0 
  6 13  1  0  0  0  0 
  9 10  1  0  0  0  0 
  9 11  1  6  0  0  0 
 10 12  1  0  0  0  0 
 13 14  1  0  0  0  0 
 14 15  1  0  0  0  0 
 14 17  2  0  0  0  0 
 15 16  1  0  0  0  0 
 16 18  1  0  0  0  0 
 18 19  1  0  0  0  0 
 19 20  1  0  0  0  0 
 20 21  1  0  0  0  0 
 21 22  1  0  0  0  0 
 22 23  1  0  0  0  0 
 23 24  1  0  0  0  0 
 24 25  1  0  0  0  0 
 25 26  1  0  0  0  0 
 26 27  1  0  0  0  0 
M  END
> <CDK Fingerprint>
CNCEIQADAABAMCgGEQAEAhIkAAgIDFUQwBIBQ8EARBARAQBgRIAAAAAgAAEhAABYJBIiABHQEAIlIAAhQEAAAAAAAAGFQgGAAAQGAFYgMXEQAAAASCAFQAABEAACgEIwAABIBABAQAEIAEEgABAAIcEAICkA+DoAdAAgQEQAAhg=

> <ActivityOutcome_CPDBAS_Rat>
inactive

$$$$

  CDK     0721101958

 14 14  0  0  0  0  0  0  0  0999 V2000
    0.0000   -2.6606    0.0000 O   0  0  0  0  0  2  0  0  0  0  0  0
    1.1541   -1.9972    0.0000 C   0  0  0  0  0  4  0  0  0  0  0  0
    1.1541   -0.6634    0.0000 C   0  0  0  0  0  4  0  0  0  0  0  0
    2.3012    0.0000    0.0000 C   0  0  0  0  0  4  0  0  0  0  0  0
    3.4553   -0.6634    0.0000 C   0  0  0  0  0  4  0  0  0  0  0  0
    3.4553   -1.9972    0.0000 C   0  0  0  0  0  4  0  0  0  0  0  0
    2.3012   -2.6606    0.0000 C   0  0  0  0  0  4  0  0  0  0  0  0
    4.6093   -2.6606    0.0000 C   0  0  0  0  0  4  0  0  0  0  0  0
    5.7565   -1.9972    0.0000 C   0  0  0  0  0  4  0  0  0  0  0  0
    5.7565   -0.6634    0.0000 C   0  0  0  0  0  4  0  0  0  0  0  0
    4.6093    0.0000    0.0000 O   0  0  0  0  0  2  0  0  0  0  0  0
    6.9106    0.0000    0.0000 O   0  0  0  0  0  2  0  0  0  0  0  0
    6.9106   -2.6606    0.0000 N   0  0  0  0  0  3  0  0  0  0  0  0
    0.0000    0.0000    0.0000 O   0  0  0  0  0  2  0  0  0  0  0  0
  1  2  1  0  0  0  0 
  2  3  2  0  0  0  0 
  2  7  1  0  0  0  0 
  3  4  1  0  0  0  0 
  3 14  1  0  0  0  0 
  4  5  2  0  0  0  0 
  5  6  1  0  0  0  0 
  6  7  2  0  0  0  0 
  6  8  1  0  0  0  0 
  8  9  1  0  0  0  0 
  9 10  1  0  0  0  0 
  9 13  1  0  0  0  0 
 10 11  2  0  0  0  0 
 10 12  1  0  0  0  0 
M  END
> <CDK Fingerprint>
AIACAAISAAEAAAAIAAAAAAAAoAAAAAAAAEgIAAJhAAAAgIgAAAAAMAAYIAAAIAAAAABAAKIgQEAEAAAUDAQAAgACBAACACAAAIAAEAAAAAAAAACAEAAAAIAAIABCAEAgIAACAAACQBAEAYAAHECAUhAEAAAAAAACAAA=

> <ActivityOutcome_CPDBAS_Rat>
inactive

$$$$

  CDK     0721101958

 24 26  0  0  0  0  0  0  0  0999 V2000
    6.7528   -5.5266    0.0000 C   0  0  0  0  0  4  0  0  0  0  0  0
    5.5957   -6.1915    0.0000 C   0  0  0  0  0  4  0  0  0  0  0  0
    5.5957   -7.5214    0.0000 Cl  0  0  0  0  0  1  0  0  0  0  0  0
    4.4472   -5.5266    0.0000 C   0  0  0  0  0  4  0  0  0  0  0  0
    4.4472   -4.1968    0.0000 C   0  0  0  0  0  4  0  0  0  0  0  0
    5.5957   -3.5319    0.0000 C   0  0  0  0  0  4  0  0  0  0  0  0
    6.7528   -4.1968    0.0000 C   0  0  0  0  0  4  0  0  0  0  0  0
    5.8116   -2.1934    0.0000 N   0  0  0  0  0  3  0  0  0  0  0  0
    7.0637   -1.8221    0.0000 C   0  0  0  0  0  4  0  0  0  0  0  0
    7.3660   -0.5268    0.0000 C   0  0  0  0  0  4  0  0  0  0  0  0
    8.6353   -0.1295    0.0000 O   0  0  0  0  0  2  0  0  0  0  0  0
    4.8703   -1.2521    0.0000 C   0  0  0  0  0  4  0  0  0  0  0  0
    5.3798    0.0000    0.0000 O   0  0  0  0  0  2  0  0  0  0  0  0
    3.5664   -1.3385    0.0000 C   0  0  0  0  0  4  0  0  0  0  0  0
    2.9015   -0.1813    0.0000 O   0  0  0  0  0  2  0  0  0  0  0  0
    2.8151   -2.4352    0.0000 N   0  0  0  0  0  3  0  0  0  0  0  0
    3.1864   -3.6873    0.0000 C   0  0  0  0  0  4  0  0  0  0  0  0
    2.2452   -4.6285    0.0000 C   0  0  0  0  0  4  0  0  0  0  0  0
    2.5129   -5.8893    0.0000 C   0  0  0  0  0  4  0  0  0  0  0  0
    1.5716   -6.8306    0.0000 C   0  0  0  0  0  4  0  0  0  0  0  0
    0.2763   -6.4247    0.0000 C   0  0  0  0  0  4  0  0  0  0  0  0
    0.0000   -5.1467    0.0000 C   0  0  0  0  0  4  0  0  0  0  0  0
    0.9413   -4.2054    0.0000 C   0  0  0  0  0  4  0  0  0  0  0  0
    0.6649   -2.9274    0.0000 F   0  0  0  0  0  1  0  0  0  0  0  0
  1  2  2  0  0  0  0 
  1  7  1  0  0  0  0 
  2  3  1  0  0  0  0 
  2  4  1  0  0  0  0 
  4  5  2  0  0  0  0 
  5  6  1  0  0  0  0 
  5 17  1  0  0  0  0 
  6  7  2  0  0  0  0 
  6  8  1  0  0  0  0 
  8  9  1  0  0  0  0 
  8 12  1  0  0  0  0 
  9 10  1  0  0  0  0 
 10 11  1  0  0  0  0 
 12 13  2  0  0  0  0 
 12 14  1  0  0  0  0 
 14 15  1  0  0  0  0 
 14 16  1  0  0  0  0 
 16 17  2  0  0  0  0 
 17 18  1  0  0  0  0 
 18 19  2  0  0  0  0 
 18 23  1  0  0  0  0 
 19 20  1  0  0  0  0 
 20 21  2  0  0  0  0 
 21 22  1  0  0  0  0 
 22 23  2  0  0  0  0 
 23 24  1  0  0  0  0 
M  END
> <CDK Fingerprint>
AQAQCAAgQjAjBgCWAIsIAJgBFCAAAGNZEQEAAIUUwFIooA3gEBIBCCCAAAB2QwmoYIAEGAAiAgBAYRABzCQpAcAEWAAAAQESAAIIIAWAIrAIAglCAAAADNOBEQgAALAgYIDQIMAgBRCIwFB6QAA0AIGgFCDNUUFJIIIAAAACkgw=

> <ActivityOutcome_CPDBAS_Rat>
inactive

$$$$

  CDK     0721101958

 22 25  0  0  0  0  0  0  0  0999 V2000
    1.1543   -7.9780    0.0000 O   0  0  0  0  0  2  0  0  0  0  0  0
    2.2994   -7.3170    0.0000 C   0  0  0  0  0  4  0  0  0  0  0  0
    2.2994   -5.9858    0.0000 C   0  0  0  0  0  4  0  0  0  0  0  0
    3.4537   -5.3155    0.0000 C   0  0  0  0  0  4  0  0  0  0  0  0
    4.6080   -5.9858    0.0000 C   0  0  0  0  0  4  0  0  0  0  0  0
    5.7624   -5.3155    0.0000 C   0  0  0  0  0  4  0  0  0  0  0  0
    5.7624   -3.9936    0.0000 O   0  0  0  0  0  2  0  0  0  0  0  0
    4.6080   -3.3234    0.0000 C   0  0  0  0  0  4  0  0  0  0  0  0
    3.4537   -3.9936    0.0000 C   0  0  0  0  0  4  0  0  0  0  0  0
    2.2994   -3.3234    0.0000 C   0  0  0  0  0  4  0  0  0  0  0  0
    2.2994   -1.9922    0.0000 C   0  0  0  0  0  4  0  0  0  0  0  0
    3.4537   -1.3312    0.0000 C   0  0  0  0  0  4  0  0  0  0  0  0
    4.6080   -1.9922    0.0000 C   0  0  0  0  0  4  0  0  0  0  0  0
    5.7624   -1.3312    0.0000 O   0  0  0  0  0  2  0  0  0  0  0  0
    3.4537    0.0000    0.0000 O   0  0  0  0  0  2  0  0  0  0  0  0
    1.1543   -3.9936    0.0000 C   0  0  0  0  0  4  0  0  0  0  0  0
    0.0000   -3.3234    0.0000 O   0  0  0  0  0  2  0  0  0  0  0  0
    1.1543   -5.3155    0.0000 O   0  0  0  0  0  2  0  0  0  0  0  0
    6.9074   -5.9858    0.0000 O   0  0  0  0  0  2  0  0  0  0  0  0
    4.6080   -7.3170    0.0000 C   0  0  0  0  0  4  0  0  0  0  0  0
    3.4537   -7.9780    0.0000 C   0  0  0  0  0  4  0  0  0  0  0  0
    3.4537   -9.3092    0.0000 O   0  0  0  0  0  2  0  0  0  0  0  0
  1  2  1  0  0  0  0 
  2  3  1  0  0  0  0 
  2 21  2  0  0  0  0 
  3  4  2  0  0  0  0 
  3 18  1  0  0  0  0 
  4  5  1  0  0  0  0 
  4  9  1  0  0  0  0 
  5  6  1  0  0  0  0 
  5 20  2  0  0  0  0 
  6  7  1  0  0  0  0 
  6 19  2  0  0  0  0 
  7  8  1  0  0  0  0 
  8  9  1  0  0  0  0 
  8 13  2  0  0  0  0 
  9 10  2  0  0  0  0 
 10 11  1  0  0  0  0 
 10 16  1  0  0  0  0 
 11 12  2  0  0  0  0 
 12 13  1  0  0  0  0 
 12 15  1  0  0  0  0 
 13 14  1  0  0  0  0 
 16 17  2  0  0  0  0 
 16 18  1  0  0  0  0 
 20 21  1  0  0  0  0 
 21 22  1  0  0  0  0 
M  END
> <CDK Fingerprint>
UgAIOABAAAEIDIACABgQBgAJQBCMiAAAgCBECocwRADUIiJpEAECjMgEAEiAAAoEYAcgIACAJCFIUUUIAIgZQiCvEGAAgAAbEIYWJiAQAdAE1kBIABCCioiEkCgDCsCBKiBMQNA8JCQDUGAKaQkAKIiMAAiA0AhAOCkIAgAiIAA=

> <ActivityOutcome_CPDBAS_Rat>
inactive

$$$$

  CDK     0721101958

 20 22  0  0  0  0  0  0  0  0999 V2000
    4.6071    0.0000    0.0000 O   0  0  0  0  0  2  0  0  0  0  0  0
    4.6071   -1.3268    0.0000 C   0  0  0  0  0  4  0  0  0  0  0  0
    5.7588   -1.9903    0.0000 C   0  0  0  0  0  4  0  0  0  0  0  0
    6.9106   -1.3268    0.0000 C   0  0  0  0  0  4  0  0  0  0  0  0
    6.9106    0.0000    0.0000 O   0  0  0  0  0  2  0  0  0  0  0  0
    8.0624   -1.9903    0.0000 C   0  0  0  0  0  4  0  0  0  0  0  0
    8.0624   -3.3171    0.0000 C   0  0  0  0  0  4  0  0  0  0  0  0
    9.2141   -3.9897    0.0000 C   0  0  0  0  0  4  0  0  0  0  0  0
    6.9106   -3.9897    0.0000 C   0  0  0  0  0  4  0  0  0  0  0  0
    5.7588   -3.3171    0.0000 C   0  0  0  0  0  4  0  0  0  0  0  0
    4.6071   -3.9897    0.0000 C   0  0  0  0  0  4  0  0  0  0  0  0
    4.6071   -5.3166    0.0000 O   0  0  0  0  0  2  0  0  0  0  0  0
    3.4553   -3.3171    0.0000 C   0  0  0  0  0  4  0  0  0  0  0  0
    2.3035   -3.9897    0.0000 C   0  0  0  0  0  4  0  0  0  0  0  0
    1.1518   -3.3171    0.0000 C   0  0  0  0  0  4  0  0  0  0  0  0
    0.0000   -3.9897    0.0000 O   0  0  0  0  0  2  0  0  0  0  0  0
    1.1518   -1.9903    0.0000 C   0  0  0  0  0  4  0  0  0  0  0  0
    2.3035   -1.3268    0.0000 C   0  0  0  0  0  4  0  0  0  0  0  0
    2.3035    0.0000    0.0000 O   0  0  0  0  0  2  0  0  0  0  0  0
    3.4553   -1.9903    0.0000 C   0  0  0  0  0  4  0  0  0  0  0  0
  1  2  2  0  0  0  0 
  2  3  1  0  0  0  0 
  2 20  1  0  0  0  0 
  3  4  2  0  0  0  0 
  3 10  1  0  0  0  0 
  4  5  1  0  0  0  0 
  4  6  1  0  0  0  0 
  6  7  2  0  0  0  0 
  7  8  1  0  0  0  0 
  7  9  1  0  0  0  0 
  9 10  2  0  0  0  0 
 10 11  1  0  0  0  0 
 11 12  2  0  0  0  0 
 11 13  1  0  0  0  0 
 13 14  2  0  0  0  0 
 13 20  1  0  0  0  0 
 14 15  1  0  0  0  0 
 15 16  1  0  0  0  0 
 15 17  2  0  0  0  0 
 17 18  1  0  0  0  0 
 18 19  1  0  0  0  0 
 18 20  2  0  0  0  0 
M  END
> <CDK Fingerprint>
AQAKAAAQAAABgYIAiAAAEAEAIAAAAAAAAAAAAABsCHgAAmkBAEOGigAAAUIAAQAwRARgBAEBAEABAhBAACACBBYIAUAEAEEIAAAoAABigAgQAADAAIAAAIAAAAAIgAAgAEoAQCAgAAIAAAZAIAQQoAAUAIIQCEEoAAAGAAAAAA==

> <ActivityOutcome_CPDBAS_Rat>
inactive

$$$$

  CDK     0721101958

 19 23  0  0  0  0  0  0  0  0999 V2000
    1.4023    2.7211    0.0000 C   0  0  0  0  0  4  0  0  0  0  0  0
    0.0000    2.7211    0.0000 O   0  0  0  0  0  2  0  0  0  0  0  0
    0.6844    1.5191    0.0000 C   0  0  0  0  0  4  0  0  0  0  0  0
    2.5709    2.4039    0.0000 C   0  0  0  0  0  4  0  0  0  0  0  0
    3.9064    2.6543    0.0000 C   0  0  0  0  0  4  0  0  0  0  0  0
    2.0533    1.2854    0.0000 C   0  0  0  0  0  4  0  0  0  0  0  0
    2.4039    0.0000    0.0000 C   0  0  0  0  0  4  0  0  0  0  0  0
    3.7728    1.5191    0.0000 C   0  0  0  0  0  4  0  0  0  0  0  0
    5.5424    3.4556    0.0000 C   0  0  0  0  0  4  0  0  0  0  0  0
    5.0249    2.1702    0.0000 C   0  0  0  0  0  4  0  0  0  0  0  0
    6.5106    1.4524    0.0000 C   0  0  0  0  0  4  0  0  0  0  0  0
    7.2284    2.6543    0.0000 C   0  0  0  0  0  4  0  0  0  0  0  0
    8.4805    2.9715    0.0000 Cl  0  0  0  0  0  1  0  0  0  0  0  0
    7.0281    0.2337    0.0000 Cl  0  0  0  0  0  1  0  0  0  0  0  0
    4.5407    0.8013    0.0000 Cl  0  0  0  0  0  1  0  0  0  0  0  0
    5.0249    4.8579    0.0000 C   0  0  0  0  0  4  0  0  0  0  0  0
    5.8596    5.7427    0.0000 Cl  0  0  0  0  0  1  0  0  0  0  0  0
    4.0566    5.6592    0.0000 Cl  0  0  0  0  0  1  0  0  0  0  0  0
    6.4605    4.4239    0.0000 Cl  0  0  0  0  0  1  0  0  0  0  0  0
  1  2  1  1  0  0  0 
  3  1  1  0  0  0  0 
  4  1  1  0  0  0  0 
  3  2  1  1  0  0  0 
  6  3  1  0  0  0  0 
  5  4  1  0  0  0  0 
  4  7  1  6  0  0  0 
  9  5  1  0  0  0  0 
  8  5  1  0  0  0  0 
  6  7  1  1  0  0  0 
  8  6  1  0  0  0  0 
 10  8  1  0  0  0  0 
 12  9  1  0  0  0  0 
  9 16  1  1  0  0  0 
 19  9  1  0  0  0  0 
 11 10  1  0  0  0  0 
 10 16  1  1  0  0  0 
 15 10  1  0  0  0  0 
 12 11  2  0  0  0  0 
 14 11  1  0  0  0  0 
 13 12  1  0  0  0  0 
 17 16  1  0  0  0  0 
 18 16  1  0  0  0  0 
M  END
> <CDK Fingerprint>
AMAAAQAAAAAAAAACIxAEABAgAAbADEAAwBAAAACBAAAAUQjwAIAAAIAAAAEgEUAQqDLgAA5IUAABClgAQEQEAQAAA6QEAoGASgQAQEAEEYAAACAAwAAAQABBEEAAAAAEAEIoAADgYAAgAABAABAAAAAAMAAAgBgAAAAAQAAAACA=

> <ActivityOutcome_CPDBAS_Rat>
inactive

$$$$

  CDK     0721101958

  5  5  0  0  0  0  0  0  0  0999 V2000
    0.0000   -1.1519    0.0000 Cl  0  0  0  0  0  1  0  0  0  0  0  0
    1.1519   -1.8168    0.0000 C   0  0  0  0  0  4  0  0  0  0  0  0
    2.3037   -1.1519    0.0000 C   0  0  0  0  0  4  0  0  0  0  0  0
    2.9687    0.0000    0.0000 C   0  0  0  0  0  4  0  0  0  0  0  0
    3.6336   -1.1519    0.0000 O   0  0  0  0  0  2  0  0  0  0  0  0
  1  2  1  0  0  0  0 
  2  3  1  0  0  0  0 
  3  4  1  0  0  0  0 
  3  5  1  0  0  0  0 
  4  5  1  0  0  0  0 
M  END
> <CDK Fingerprint>
AgAAAAAAAAAAAAAAAIAAAAAAAAAAAAAA4AgAAAAAAAAAAAAAECACAAACAAAAAAAAAEAAAAEAAAAIAACAACAAAAAAAAAAAAAAAAAAAAAAABAAAAAAAAAAAAAAAAAAAAAAAAAAAAAAAAAAAAAAAAAAAAAAAAAA

> <ActivityOutcome_CPDBAS_Rat>
active

> <TD50_Rat_mmol>
0.032

$$$$

  CDK     0721101958

  5  5  0  0  0  0  0  0  0  0999 V2000
    0.0000   -1.1519    0.0000 C   0  0  0  0  0  4  0  0  0  0  0  0
    1.1519   -1.8168    0.0000 C   0  0  0  0  0  4  0  0  0  0  0  0
    2.3037   -1.1519    0.0000 C   0  0  0  0  0  4  0  0  0  0  0  0
    2.9687    0.0000    0.0000 C   0  0  0  0  0  4  0  0  0  0  0  0
    3.6336   -1.1519    0.0000 O   0  0  0  0  0  2  0  0  0  0  0  0
  1  2  1  0  0  0  0 
  2  3  1  0  0  0  0 
  3  4  1  0  0  0  0 
  3  5  1  0  0  0  0 
  4  5  1  0  0  0  0 
M  END
> <CDK Fingerprint>
AgAAAAAAAAAAAAAAAIAAAAAAAAAAAAAAYAAAAAAAAAAAAAAAECACAAAAAAAAAAAAAEAAAAAAAAAAAAAAAAAAAAAAAAAAAAAAAAAAAEAAABAAAAAAAAAAAAAAAAAAAAAAAAAQAAAAAAAAAAAQAAAAAAAAAAAA

> <ActivityOutcome_CPDBAS_Rat>
active

> <TD50_Rat_mmol>
3.05

$$$$

  CDK     0721101958

 21 24  0  0  0  0  0  0  0  0999 V2000
    6.7457   -5.4442    0.0000 C   0  0  0  0  0  4  0  0  0  0  0  0
    5.5929   -6.1061    0.0000 C   0  0  0  0  0  4  0  0  0  0  0  0
    5.5929   -7.4374    0.0000 Cl  0  0  0  0  0  1  0  0  0  0  0  0
    4.4401   -5.4442    0.0000 C   0  0  0  0  0  4  0  0  0  0  0  0
    4.4401   -4.1129    0.0000 C   0  0  0  0  0  4  0  0  0  0  0  0
    5.5929   -3.4435    0.0000 C   0  0  0  0  0  4  0  0  0  0  0  0
    6.7457   -4.1129    0.0000 C   0  0  0  0  0  4  0  0  0  0  0  0
    5.8086   -2.1122    0.0000 N   0  0  0  0  0  3  0  0  0  0  0  0
    4.8715   -1.1751    0.0000 C   0  0  0  0  0  4  0  0  0  0  0  0
    3.5625   -1.2569    0.0000 C   0  0  0  0  0  4  0  0  0  0  0  0
    2.8113   -2.3576    0.0000 N   0  0  0  0  0  3  0  0  0  0  0  0
    3.1906   -3.6071    0.0000 C   0  0  0  0  0  4  0  0  0  0  0  0
    2.2461   -4.5517    0.0000 C   0  0  0  0  0  4  0  0  0  0  0  0
    2.5064   -5.8086    0.0000 C   0  0  0  0  0  4  0  0  0  0  0  0
    1.5693   -6.7531    0.0000 C   0  0  0  0  0  4  0  0  0  0  0  0
    0.2752   -6.3366    0.0000 C   0  0  0  0  0  4  0  0  0  0  0  0
    0.0000   -5.0574    0.0000 C   0  0  0  0  0  4  0  0  0  0  0  0
    0.9371   -4.1203    0.0000 C   0  0  0  0  0  4  0  0  0  0  0  0
    5.5483    0.0000    0.0000 N   0  0  0  0  0  3  0  0  0  0  0  0
    6.8424   -0.2529    0.0000 N   0  0  0  0  0  3  0  0  0  0  0  0
    6.9986   -1.5693    0.0000 C   0  0  0  0  0  4  0  0  0  0  0  0
  1  2  2  0  0  0  0 
  1  7  1  0  0  0  0 
  2  3  1  0  0  0  0 
  2  4  1  0  0  0  0 
  4  5  2  0  0  0  0 
  5  6  1  0  0  0  0 
  5 12  1  0  0  0  0 
  6  7  2  0  0  0  0 
  6  8  1  0  0  0  0 
  8  9  1  0  0  0  0 
  8 21  1  0  0  0  0 
  9 10  1  0  0  0  0 
  9 19  2  0  0  0  0 
 10 11  1  0  0  0  0 
 11 12  2  0  0  0  0 
 12 13  1  0  0  0  0 
 13 14  2  0  0  0  0 
 13 18  1  0  0  0  0 
 14 15  1  0  0  0  0 
 15 16  2  0  0  0  0 
 16 17  1  0  0  0  0 
 17 18  2  0  0  0  0 
 19 20  1  0  0  0  0 
 20 21  2  0  0  0  0 
M  END
> <CDK Fingerprint>
ExAACgDoRgUzAgAAAIJgIJQFAAAEAEBIEApAQAQMAIIIpIHkACggCgEBAAA7A9AQYoAAARQCASBAATABQCQBAYIGWCYMgAAAAAAUIAAgIGAIQhEiAAAIA2ODQAgBEIAQKIIQINKgBTWGIAAyWQIUAwFAFCCUIUBBAAIRiUACOqg=

> <ActivityOutcome_CPDBAS_Rat>
inactive

$$$$

  CDK     0721101958

 52 57  0  0  0  0  0  0  0  0999 V2000
    6.9476  -14.0864    0.0000 C   0  0  0  0  0  4  0  0  0  0  0  0
    5.8003  -14.7451    0.0000 C   0  0  0  0  0  4  0  0  0  0  0  0
    6.9476  -12.7479    0.0000 C   0  0  0  0  0  4  0  0  0  0  0  0
    4.6317  -14.0864    0.0000 C   0  0  0  0  0  4  0  0  0  0  0  0
    5.8003  -12.0680    0.0000 C   0  0  0  0  0  4  0  0  0  0  0  0
    4.6317  -12.7479    0.0000 C   0  0  0  0  0  4  0  0  0  0  0  0
    3.4844  -12.0680    0.0000 N   0  0  0  0  0  3  0  0  0  0  0  0
    3.4844  -10.7295    0.0000 C   0  0  0  0  0  4  0  0  0  0  0  0
    2.3159  -12.7479    0.0000 C   0  0  0  0  0  4  0  0  0  0  0  0
    1.1686  -12.0680    0.0000 C   0  0  0  0  0  4  0  0  0  0  0  0
    2.3159  -10.0709    0.0000 C   0  0  0  0  0  4  0  0  0  0  0  0
    0.0000  -12.7479    0.0000 Cl  0  0  0  0  0  1  0  0  0  0  0  0
    2.3159   -8.7323    0.0000 Cl  0  0  0  0  0  1  0  0  0  0  0  0
    8.0949  -14.7451    0.0000 C   0  0  0  0  0  4  0  0  0  0  0  0
   17.3584  -10.7295    0.0000 C   0  0  0  0  0  4  0  0  0  0  0  0
   17.3584  -12.0680    0.0000 C   0  0  0  0  0  4  0  0  0  0  0  0
   16.2111  -12.7479    0.0000 C   0  0  0  0  0  4  0  0  0  0  0  0
   15.0425  -12.0680    0.0000 C   0  0  0  0  0  4  0  0  0  0  0  0
   13.8952  -12.7479    0.0000 C   0  0  0  0  0  4  0  0  0  0  0  0
    9.2635  -14.0864    0.0000 C   0  0  0  0  0  4  0  0  0  0  0  0
   13.8952  -14.0864    0.0000 C   0  0  0  0  0  4  0  0  0  0  0  0
   16.2111  -10.0709    0.0000 C   0  0  0  0  0  4  0  0  0  0  0  0
   15.0425  -10.7295    0.0000 C   0  0  0  0  0  4  0  0  0  0  0  0
   16.2111  -14.0864    0.0000 C   0  0  0  0  0  4  0  0  0  0  0  0
   18.6332  -12.4930    0.0000 C   0  0  0  0  0  4  0  0  0  0  0  0
   10.4108  -14.7451    0.0000 O   0  0  0  0  0  2  0  0  0  0  0  0
   12.7267  -12.0680    0.0000 C   0  0  0  0  0  4  0  0  0  0  0  0
   18.6332  -10.3258    0.0000 C   0  0  0  0  0  4  0  0  0  0  0  0
   12.7267  -14.7451    0.0000 C   0  0  0  0  0  4  0  0  0  0  0  0
   15.0425  -14.7451    0.0000 C   0  0  0  0  0  4  0  0  0  0  0  0
   11.5794  -14.0864    0.0000 C   0  0  0  0  0  4  0  0  0  0  0  0
    9.2635  -12.7479    0.0000 O   0  0  0  0  0  2  0  0  0  0  0  0
   19.4193  -11.4094    0.0000 C   0  0  0  0  0  4  0  0  0  0  0  0
   11.5794  -12.7479    0.0000 C   0  0  0  0  0  4  0  0  0  0  0  0
   17.5921   -9.4122    0.0000 C   0  0  0  0  0  4  0  0  0  0  0  0
   19.0369   -9.0723    0.0000 O   0  0  0  0  0  2  0  0  0  0  0  0
   20.3542   -8.7748    0.0000 C   0  0  0  0  0  4  0  0  0  0  0  0
   21.2465   -9.7734    0.0000 O   0  0  0  0  0  2  0  0  0  0  0  0
   20.7579   -7.5000    0.0000 C   0  0  0  0  0  4  0  0  0  0  0  0
   19.8655   -6.5227    0.0000 C   0  0  0  0  0  4  0  0  0  0  0  0
   18.5482   -6.7989    0.0000 C   0  0  0  0  0  4  0  0  0  0  0  0
   20.2904   -5.2479    0.0000 C   0  0  0  0  0  4  0  0  0  0  0  0
   17.6771   -5.8003    0.0000 C   0  0  0  0  0  4  0  0  0  0  0  0
   19.3768   -4.2493    0.0000 C   0  0  0  0  0  4  0  0  0  0  0  0
   18.0808   -4.5255    0.0000 C   0  0  0  0  0  4  0  0  0  0  0  0
   17.1884   -3.5482    0.0000 N   0  0  0  0  0  3  0  0  0  0  0  0
   17.5921   -2.2734    0.0000 C   0  0  0  0  0  4  0  0  0  0  0  0
   15.8924   -3.8244    0.0000 C   0  0  0  0  0  4  0  0  0  0  0  0
   14.9788   -2.8258    0.0000 C   0  0  0  0  0  4  0  0  0  0  0  0
   16.6998   -1.2748    0.0000 C   0  0  0  0  0  4  0  0  0  0  0  0
   13.6828   -3.1020    0.0000 Cl  0  0  0  0  0  1  0  0  0  0  0  0
   17.1035    0.0000    0.0000 Cl  0  0  0  0  0  1  0  0  0  0  0  0
  1  2  1  0  0  0  0 
  1  3  2  0  0  0  0 
  1 14  1  0  0  0  0 
  2  4  2  0  0  0  0 
  3  5  1  0  0  0  0 
  4  6  1  0  0  0  0 
  5  6  2  0  0  0  0 
  6  7  1  0  0  0  0 
  7  8  1  0  0  0  0 
  7  9  1  0  0  0  0 
  8 11  1  0  0  0  0 
  9 10  1  0  0  0  0 
 10 12  1  0  0  0  0 
 11 13  1  0  0  0  0 
 14 20  1  0  0  0  0 
 15 16  1  0  0  0  0 
 15 22  1  0  0  0  0 
 15 28  1  0  0  0  0 
 15 35  1  1  0  0  0 
 16 17  1  0  0  0  0 
 16 25  1  0  0  0  0 
 17 24  1  0  0  0  0 
 17 18  1  0  0  0  0 
 18 23  1  0  0  0  0 
 18 19  1  0  0  0  0 
 19 21  1  0  0  0  0 
 19 27  2  0  0  0  0 
 20 26  1  0  0  0  0 
 20 32  2  0  0  0  0 
 21 29  2  0  0  0  0 
 21 30  1  0  0  0  0 
 22 23  1  0  0  0  0 
 24 30  1  0  0  0  0 
 25 33  1  0  0  0  0 
 26 31  1  0  0  0  0 
 27 34  1  0  0  0  0 
 28 33  1  0  0  0  0 
 28 36  1  1  0  0  0 
 29 31  1  0  0  0  0 
 31 34  2  0  0  0  0 
 36 37  1  0  0  0  0 
 37 38  2  0  0  0  0 
 37 39  1  0  0  0  0 
 39 40  1  0  0  0  0 
 40 41  1  0  0  0  0 
 40 42  2  0  0  0  0 
 41 43  2  0  0  0  0 
 42 44  1  0  0  0  0 
 43 45  1  0  0  0  0 
 44 45  2  0  0  0  0 
 45 46  1  0  0  0  0 
 46 47  1  0  0  0  0 
 46 48  1  0  0  0  0 
 47 50  1  0  0  0  0 
 48 49  1  0  0  0  0 
 49 51  1  0  0  0  0 
 50 52  1  0  0  0  0 
M  END
> <CDK Fingerprint>
CICQIAACAYAqCACSExBEBBCoAgAABABNwQQGAoIEwEoICQLhEMACgIEEAAkgKEDUoRclYhKAAiBAACUo0EQBAVAOHCgAAhCCFARyBGKAFZIAEAgByQCAQgjBEAQCCogAKABOAUBkcCICMAADQRgHARAAHACEfDCUAIAQACAiWAA=

> <ActivityOutcome_CPDBAS_Rat>
inactive

$$$$

  CDK     0721101958

 22 25  0  0  0  0  0  0  0  0999 V2000
    6.9859   -1.7358    0.0000 C   0  0  0  0  0  4  0  0  0  0  0  0
    6.9859   -3.0776    0.0000 C   0  0  0  0  0  4  0  0  0  0  0  0
    5.8145   -3.7485    0.0000 C   0  0  0  0  0  4  0  0  0  0  0  0
    4.6644   -3.0883    0.0000 C   0  0  0  0  0  4  0  0  0  0  0  0
    3.5036   -3.7698    0.0000 C   0  0  0  0  0  4  0  0  0  0  0  0
    8.2425   -1.3099    0.0000 C   0  0  0  0  0  4  0  0  0  0  0  0
    3.5036   -5.1116    0.0000 C   0  0  0  0  0  4  0  0  0  0  0  0
    9.5736   -1.3737    0.0000 C   0  0  0  0  0  4  0  0  0  0  0  0
    5.8145   -1.0756    0.0000 C   0  0  0  0  0  4  0  0  0  0  0  0
    4.6644   -1.7358    0.0000 C   0  0  0  0  0  4  0  0  0  0  0  0
    8.2425   -3.4929    0.0000 C   0  0  0  0  0  4  0  0  0  0  0  0
    5.8145   -5.1116    0.0000 C   0  0  0  0  0  4  0  0  0  0  0  0
   10.6492   -1.3737    0.0000 C   0  0  0  0  0  4  0  0  0  0  0  0
    2.3428   -3.0989    0.0000 C   0  0  0  0  0  4  0  0  0  0  0  0
    4.6644   -5.7719    0.0000 C   0  0  0  0  0  4  0  0  0  0  0  0
    9.0305   -2.3961    0.0000 C   0  0  0  0  0  4  0  0  0  0  0  0
    2.3428   -5.7719    0.0000 C   0  0  0  0  0  4  0  0  0  0  0  0
    1.1927   -5.1010    0.0000 C   0  0  0  0  0  4  0  0  0  0  0  0
    8.4342    0.0000    0.0000 O   0  0  0  0  0  2  0  0  0  0  0  0
    1.1927   -3.7698    0.0000 C   0  0  0  0  0  4  0  0  0  0  0  0
    6.9859   -0.3940    0.0000 C   0  0  0  0  0  4  0  0  0  0  0  0
    0.0000   -5.7612    0.0000 O   0  0  0  0  0  2  0  0  0  0  0  0
  1  2  1  0  0  0  0 
  1  6  1  0  0  0  0 
  1  9  1  0  0  0  0 
  1 21  1  1  0  0  0 
  2  3  1  0  0  0  0 
  2 11  1  0  0  0  0 
  3 12  1  0  0  0  0 
  3  4  1  0  0  0  0 
  4 10  1  0  0  0  0 
  4  5  1  0  0  0  0 
  5  7  1  0  0  0  0 
  5 14  2  0  0  0  0 
  6  8  1  6  0  0  0 
  6 16  1  0  0  0  0 
  6 19  1  1  0  0  0 
  7 17  2  0  0  0  0 
  7 15  1  0  0  0  0 
  8 13  3  0  0  0  0 
  9 10  1  0  0  0  0 
 11 16  1  0  0  0  0 
 12 15  1  0  0  0  0 
 14 20  1  0  0  0  0 
 17 18  1  0  0  0  0 
 18 20  2  0  0  0  0 
 18 22  1  0  0  0  0 
M  END
> <CDK Fingerprint>
IAAAAAAAAACSAQAEAACIAgAAAAAAQAAAAgAAgAgIAQJhAEACgIEAAAAgKAAUIRAhIAQgAABAACAAQEABABAECAAAAAAABAAAAGIAAYAAEAACiACAAAiAEAQACIgAIABKAEBgcgACAAADQBAEAAAAHACADBAEAAAAAAAAAAA=

> <ActivityOutcome_CPDBAS_Rat>
active

> <TD50_Rat_mmol>
0.000675

$$$$

  CDK     0721101958

 11 11  0  0  0  0  0  0  0  0999 V2000
    6.9065   -1.9891    0.0000 N   0  0  0  0  0  3  0  0  0  0  0  0
    5.7531   -2.6590    0.0000 C   0  0  0  0  0  4  0  0  0  0  0  0
    5.7531   -3.9851    0.0000 S   0  0  0  0  0  2  0  0  0  0  0  0
    4.6067   -1.9891    0.0000 C   0  0  0  0  0  4  0  0  0  0  0  0
    3.4533   -2.6590    0.0000 C   0  0  0  0  0  4  0  0  0  0  0  0
    2.2999   -1.9891    0.0000 C   0  0  0  0  0  4  0  0  0  0  0  0
    2.2999   -0.6630    0.0000 N   0  0  0  0  0  3  0  0  0  0  0  0
    3.4533    0.0000    0.0000 C   0  0  0  0  0  4  0  0  0  0  0  0
    4.6067   -0.6630    0.0000 C   0  0  0  0  0  4  0  0  0  0  0  0
    1.1534   -2.6590    0.0000 C   0  0  0  0  0  4  0  0  0  0  0  0
    0.0000   -1.9891    0.0000 C   0  0  0  0  0  4  0  0  0  0  0  0
  1  2  1  0  0  0  0 
  2  3  2  0  0  0  0 
  2  4  1  0  0  0  0 
  4  5  2  0  0  0  0 
  4  9  1  0  0  0  0 
  5  6  1  0  0  0  0 
  6  7  2  0  0  0  0 
  6 10  1  0  0  0  0 
  7  8  1  0  0  0  0 
  8  9  2  0  0  0  0 
 10 11  1  0  0  0  0 
M  END
> <CDK Fingerprint>
IAACCJAiAUIAgAwAAJIAAAAAAAAAAIAAAAAAAAAJJAIAAWAQEAAAgAAAQAAhAAgwAAAACBAAAEAAAABBAAAAAQAIAAQABAAAAAEAAAAAAACgAAAAAgAAAJAgAAAAiAAgAAAAQCAAAAAAAABAAASAIgAUAIAAAAAAAEFAAIIAgA==

> <ActivityOutcome_CPDBAS_Rat>
inactive

$$$$

  CDK     0721101958

 10  9  0  0  0  0  0  0  0  0999 V2000
    3.9924    0.0000    0.0000 N   0  0  0  0  0  3  0  0  0  0  0  0
    4.6578   -1.1511    0.0000 C   0  0  0  0  0  4  0  0  0  0  0  0
    3.9924   -2.3023    0.0000 C   0  0  0  0  0  4  0  0  0  0  0  0
    2.6616   -2.3023    0.0000 C   0  0  0  0  0  4  0  0  0  0  0  0
    1.9962   -1.1511    0.0000 S   0  0  0  0  0  2  0  0  0  0  0  0
    0.6654   -1.1511    0.0000 C   0  0  0  0  0  4  0  0  0  0  0  0
    0.0000    0.0000    0.0000 C   0  0  0  0  0  4  0  0  0  0  0  0
    5.9885   -1.1511    0.0000 C   0  0  0  0  0  4  0  0  0  0  0  0
    6.6539    0.0000    0.0000 O   0  0  0  0  0  2  0  0  0  0  0  0
    6.6539   -2.3023    0.0000 O   0  0  0  0  0  2  0  0  0  0  0  0
  2  1  1  6  0  0  0 
  2  3  1  0  0  0  0 
  2  8  1  0  0  0  0 
  3  4  1  0  0  0  0 
  4  5  1  0  0  0  0 
  5  6  1  0  0  0  0 
  6  7  1  0  0  0  0 
  8  9  2  0  0  0  0 
  8 10  1  0  0  0  0 
M  END
> <CDK Fingerprint>
AIICAQACAAEAAAAAAAAAAAQAAAAAAAAAIAAAAAFgAAAABAAAAAAIAAAYIAAAAAAAAAAAAAAgQAAAAAAAgAAAAAQAAAAAQAAAAAAAAAAAgAAIAAACEAAAAABAAABAAAABQAAAAAAAgBAAAYAgAAAAUBAAAAAAAAACABA=

> <ActivityOutcome_CPDBAS_Rat>
active

> <TD50_Rat_mmol>
0.0304

$$$$

  CDK     0721101958

 10  9  0  0  0  0  0  0  0  0999 V2000
    3.9924    0.0000    0.0000 N   0  0  0  0  0  3  0  0  0  0  0  0
    4.6578   -1.1511    0.0000 C   0  0  0  0  0  4  0  0  0  0  0  0
    3.9924   -2.3023    0.0000 C   0  0  0  0  0  4  0  0  0  0  0  0
    2.6616   -2.3023    0.0000 C   0  0  0  0  0  4  0  0  0  0  0  0
    1.9962   -1.1511    0.0000 S   0  0  0  0  0  2  0  0  0  0  0  0
    0.6654   -1.1511    0.0000 C   0  0  0  0  0  4  0  0  0  0  0  0
    0.0000    0.0000    0.0000 C   0  0  0  0  0  4  0  0  0  0  0  0
    5.9885   -1.1511    0.0000 C   0  0  0  0  0  4  0  0  0  0  0  0
    6.6539    0.0000    0.0000 O   0  0  0  0  0  2  0  0  0  0  0  0
    6.6539   -2.3023    0.0000 O   0  0  0  0  0  2  0  0  0  0  0  0
  1  2  1  0  0  0  0 
  2  3  1  0  0  0  0 
  2  8  1  0  0  0  0 
  3  4  1  0  0  0  0 
  4  5  1  0  0  0  0 
  5  6  1  0  0  0  0 
  6  7  1  0  0  0  0 
  8  9  2  0  0  0  0 
  8 10  1  0  0  0  0 
M  END
> <CDK Fingerprint>
AIICAQACAAEAAAAAAAAAAAQAAAAAAAAAIAAAAAFgAAAABAAAAAAIAAAYIAAAAAAAAAAAAAAgQAAAAAAAgAAAAAQAAAAAQAAAAAAAAAAAgAAIAAACEAAAAABAAABAAAABQAAAAAAAgBAAAYAgAAAAUBAAAAAAAAACABA=

> <ActivityOutcome_CPDBAS_Rat>
active

> <TD50_Rat_mmol>
0.0598

$$$$

  CDK     0721101958

 13 13  0  0  0  0  0  0  0  0999 V2000
    8.0390   -0.6982    0.0000 C   0  0  0  0  0  4  0  0  0  0  0  0
    6.8998    0.0000    0.0000 N   0  0  0  0  0  3  0  0  0  0  0  0
    8.0390   -2.0304    0.0000 O   0  0  0  0  0  2  0  0  0  0  0  0
    9.1874    0.0000    0.0000 N   0  0  0  0  0  3  0  0  0  0  0  0
    5.7330   -0.6891    0.0000 C   0  0  0  0  0  4  0  0  0  0  0  0
    3.4545   -2.0304    0.0000 C   0  0  0  0  0  4  0  0  0  0  0  0
    4.5937   -0.0276    0.0000 C   0  0  0  0  0  4  0  0  0  0  0  0
    5.7330   -2.0304    0.0000 C   0  0  0  0  0  4  0  0  0  0  0  0
    3.4545   -0.6891    0.0000 C   0  0  0  0  0  4  0  0  0  0  0  0
    4.5937   -2.6735    0.0000 C   0  0  0  0  0  4  0  0  0  0  0  0
    2.2877   -2.7011    0.0000 O   0  0  0  0  0  2  0  0  0  0  0  0
    1.1392   -2.0488    0.0000 C   0  0  0  0  0  4  0  0  0  0  0  0
    0.0000   -2.7195    0.0000 C   0  0  0  0  0  4  0  0  0  0  0  0
  1  2  1  0  0  0  0 
  1  3  2  0  0  0  0 
  1  4  1  0  0  0  0 
  2  5  1  0  0  0  0 
  5  7  2  0  0  0  0 
  5  8  1  0  0  0  0 
  6 10  1  0  0  0  0 
  6 11  1  0  0  0  0 
  6  9  2  0  0  0  0 
  7  9  1  0  0  0  0 
  8 10  2  0  0  0  0 
 11 12  1  0  0  0  0 
 12 13  1  0  0  0  0 
M  END
> <CDK Fingerprint>
ICAQgEYAEAAEAAAAAAAAAECAAAEAAATAAggAQmEIAAAAAAAACAAAAQAgAgQgAIACAEAAAAiABAAAwAIQAAAAQQAAAAAEBAAAgAABAAAAAAAAAAAQAAACAAAgAEAABCAgIAAAAAIAAAAAAAACAIhAAEAAAEAAACIQAA==

> <ActivityOutcome_CPDBAS_Rat>
active

> <TD50_Rat_mmol>
2.98

$$$$

  CDK     0721101958

 16 17  0  0  0  0  0  0  0  0999 V2000
    6.9073   -4.5736    0.0000 C   0  0  0  0  0  4  0  0  0  0  0  0
    6.9073   -3.2428    0.0000 C   0  0  0  0  0  4  0  0  0  0  0  0
    8.0601   -2.5774    0.0000 C   0  0  0  0  0  4  0  0  0  0  0  0
    8.0601   -1.2465    0.0000 C   0  0  0  0  0  4  0  0  0  0  0  0
    6.9073   -0.5811    0.0000 N   0  0  0  0  0  3  0  0  0  0  0  0
    5.7545   -1.2465    0.0000 C   0  0  0  0  0  4  0  0  0  0  0  0
    5.7545   -2.5774    0.0000 C   0  0  0  0  0  4  0  0  0  0  0  0
    4.6111   -3.2428    0.0000 C   0  0  0  0  0  4  0  0  0  0  0  0
    3.4583   -2.5774    0.0000 C   0  0  0  0  0  4  0  0  0  0  0  0
    3.4583   -1.2465    0.0000 C   0  0  0  0  0  4  0  0  0  0  0  0
    4.6111   -0.5811    0.0000 C   0  0  0  0  0  4  0  0  0  0  0  0
    2.3056   -3.2428    0.0000 O   0  0  0  0  0  2  0  0  0  0  0  0
    1.1528   -2.5774    0.0000 C   0  0  0  0  0  4  0  0  0  0  0  0
    0.0000   -3.2428    0.0000 C   0  0  0  0  0  4  0  0  0  0  0  0
    8.5193    0.0000    0.0000 C   0  0  0  0  0  4  0  0  0  0  0  0
    9.3722   -1.4808    0.0000 C   0  0  0  0  0  4  0  0  0  0  0  0
  1  2  1  0  0  0  0 
  2  3  2  0  0  0  0 
  2  7  1  0  0  0  0 
  3  4  1  0  0  0  0 
  4  5  1  0  0  0  0 
  4 15  1  0  0  0  0 
  4 16  1  0  0  0  0 
  5  6  1  0  0  0  0 
  6  7  2  0  0  0  0 
  6 11  1  0  0  0  0 
  7  8  1  0  0  0  0 
  8  9  2  0  0  0  0 
  9 10  1  0  0  0  0 
  9 12  1  0  0  0  0 
 10 11  2  0  0  0  0 
 12 13  1  0  0  0  0 
 13 14  1  0  0  0  0 
M  END
> <CDK Fingerprint>
QAIAEAAEACIIgCIAEAhEAAAAAAAEAFCBAAQABAxACioABmEIRACAgAAAGAAAAJBgAgQgAIITIGAACCjABAgAQAaYAAQCQBAACAIEAoAAkCCBQAIAAAgAAIAQAAACgADoAAAAQCEoIGIIkCpCCCwiBCAUAIAACAARohIgACIQAA==

> <ActivityOutcome_CPDBAS_Rat>
inactive

$$$$

  CDK     0721101958

  7  6  0  0  0  0  0  0  0  0999 V2000
    2.6592    0.0000    0.0000 O   0  0  0  0  0  2  0  0  0  0  0  0
    1.9979   -1.1550    0.0000 C   0  0  0  0  0  4  0  0  0  0  0  0
    2.6592   -2.3053    0.0000 O   0  0  0  0  0  2  0  0  0  0  0  0
    3.9912   -2.3053    0.0000 C   0  0  0  0  0  4  0  0  0  0  0  0
    4.6571   -1.1550    0.0000 C   0  0  0  0  0  4  0  0  0  0  0  0
    0.6660   -1.1550    0.0000 C   0  0  0  0  0  4  0  0  0  0  0  0
    0.0000   -2.3053    0.0000 C   0  0  0  0  0  4  0  0  0  0  0  0
  1  2  2  0  0  0  0 
  2  3  1  0  0  0  0 
  2  6  1  0  0  0  0 
  3  4  1  0  0  0  0 
  4  5  1  0  0  0  0 
  6  7  2  0  0  0  0 
M  END
> <CDK Fingerprint>
QAAAAAAAAAAAAAIAAAAAAAAAAAAAAACAEAAAgAAAAAAAAGAAgAAAAAAAAAAAAEAgAgAAABAQAAAAAAAAAAAAAAAAAAAAAAAAAAAAAAAAAAAAAAAAAAAAAAAQAAAAAAAAAEAAAAAAAAAAAAAAAAAAAQAAAABwAAAAAAAAAAAAAA==

> <ActivityOutcome_CPDBAS_Rat>
active

> <TD50_Rat_mmol>
1.19

$$$$

  CDK     0721101958

  3  2  0  0  0  0  0  0  0  0999 V2000
    2.3030   -0.6656    0.0000 C   0  0  0  0  0  4  0  0  0  0  0  0
    1.1515    0.0000    0.0000 C   0  0  0  0  0  4  0  0  0  0  0  0
    0.0000   -0.6656    0.0000 O   0  0  0  0  0  2  0  0  0  0  0  0
  1  2  1  0  0  0  0 
  2  3  1  0  0  0  0 
M  END
> <CDK Fingerprint>
AgAAAAAAAAAAAAAAAAAAAAAAAAAAAAAAYAAAAAAAAAAAAAAAACAAAAAAAAAAAAAAAAAAAAAAAAAAAAAAAAAAAAAAAAAAAAAAAAAAAAAAABAAAAAAAAAAAAAAAAAAAAAAAAAAAAAAAAAAAAAAAAAAAAAAAAAA

> <ActivityOutcome_CPDBAS_Rat>
active

> <TD50_Rat_mmol>
198

$$$$

  CDK     0721101958

  7  6  0  0  0  0  0  0  0  0999 V2000
    1.9956   -1.1548    0.0000 N   0  0  0  0  0  4  0  0  0  0  0  0
    3.3260   -1.1548    0.0000 N   0  0  0  0  0  3  0  0  0  0  0  0
    3.9912   -2.3043    0.0000 C   0  0  0  0  0  4  0  0  0  0  0  0
    5.3216   -2.3043    0.0000 C   0  0  0  0  0  4  0  0  0  0  0  0
    1.3304    0.0000    0.0000 C   0  0  0  0  0  4  0  0  0  0  0  0
    0.0000    0.0000    0.0000 C   0  0  0  0  0  4  0  0  0  0  0  0
    1.3304   -2.3043    0.0000 O   0  0  0  0  0  1  0  0  0  0  0  0
  1  2  2  0  0  0  0 
  1  5  1  0  0  0  0 
  1  7  1  0  0  0  0 
  2  3  1  0  0  0  0 
  3  4  1  0  0  0  0 
  5  6  1  0  0  0  0 
M  CHG  1   1   1
M  CHG  1   7  -1
M  END
> <CDK Fingerprint>
QAAiAAAIAAAAAAAAAAAAAAAAAAAAAAAAAAAAAABgAAAAAAAAAAAAAAAAIAAAgAIAAAAgAAQAAAAgEAAAAAAAAAAAAAAAAAAAAAAAAAQAAAAAAAAAAAAAAAAAAAAAAAAAAAAAAAAAAAAAAAAAAAAAAEAAAAAQAAACAAA=

> <ActivityOutcome_CPDBAS_Rat>
active

> <TD50_Rat_mmol>
0.000215

$$$$

  CDK     0721101958

  6  5  0  0  0  0  0  0  0  0999 V2000
    1.1559   -3.3081    0.0000 C   0  0  0  0  0  4  0  0  0  0  0  0
    2.3117   -3.9857    0.0000 C   0  0  0  0  0  4  0  0  0  0  0  0
    1.1559   -1.9729    0.0000 N   0  0  0  0  0  4  0  0  0  0  0  0
    0.0000   -1.3153    0.0000 N   0  0  0  0  0  3  0  0  0  0  0  0
    2.3117   -1.3153    0.0000 O   0  0  0  0  0  1  0  0  0  0  0  0
    0.0000    0.0000    0.0000 C   0  0  0  0  0  4  0  0  0  0  0  0
  1  2  1  0  0  0  0 
  1  3  1  0  0  0  0 
  3  4  2  0  0  0  0 
  3  5  1  0  0  0  0 
  4  6  1  0  0  0  0 
M  CHG  1   3   1
M  CHG  1   5  -1
M  END
> <CDK Fingerprint>
QAAiAAAIAAAAAAAAAAAAAAAAAAAAAAAAAAAAAABgAAAAAAAAAAAAAAAAIAAAgAIAAAAgAAQAAAAgEAAAAAAAAAAAAAAAAAAAAAAAAAAAAAAAAAAAAAAAAAAAAAAAAAAAAAAAAAAAAAAAAAAAAAAAAAAAAAAQAAACAAA=

> <ActivityOutcome_CPDBAS_Rat>
active

> <TD50_Rat_mmol>
0.000215

$$$$

  CDK     0721101958

  9  8  0  0  0  0  0  0  0  0999 V2000
    1.1530   -1.3257    0.0000 C   0  0  0  0  0  4  0  0  0  0  0  0
    2.2992   -1.9954    0.0000 C   0  0  0  0  0  4  0  0  0  0  0  0
    3.4522   -1.3257    0.0000 C   0  0  0  0  0  4  0  0  0  0  0  0
    0.0000   -1.9954    0.0000 O   0  0  0  0  0  2  0  0  0  0  0  0
    1.1530    0.0000    0.0000 O   0  0  0  0  0  2  0  0  0  0  0  0
    2.2992   -3.3210    0.0000 N   0  0  0  0  0  3  0  0  0  0  0  0
    4.6053   -1.9954    0.0000 S   0  0  0  0  0  2  0  0  0  0  0  0
    5.7514   -1.3257    0.0000 C   0  0  0  0  0  4  0  0  0  0  0  0
    6.9045   -1.9954    0.0000 C   0  0  0  0  0  4  0  0  0  0  0  0
  1  2  1  0  0  0  0 
  1  4  2  0  0  0  0 
  1  5  1  0  0  0  0 
  2  3  1  0  0  0  0 
  2  6  1  6  0  0  0 
  3  7  1  0  0  0  0 
  7  8  1  0  0  0  0 
  8  9  1  0  0  0  0 
M  END
> <CDK Fingerprint>
AIICAQACAAAAAAIAAAAAAAAAAAAAAAAAAAAAAAFgAAAABAAAAAAAAAAYIAQAAAAAAAAAAAAAQAAAAAAAAACAAAAAAAAAAAAAAAAAAAAAgAAAAABAEAAAAAAAAABBAAABAAAAAAABgAAAAYAgAAAAUAAAAAACAAACABE=

> <ActivityOutcome_CPDBAS_Rat>
inactive

$$$$

  CDK     0721101958

 20 21  0  0  0  0  0  0  0  0999 V2000
    5.7629   -5.9805    0.0000 Cl  0  0  0  0  0  1  0  0  0  0  0  0
    4.6020   -5.3172    0.0000 C   0  0  0  0  0  4  0  0  0  0  0  0
    4.6020   -3.9905    0.0000 C   0  0  0  0  0  4  0  0  0  0  0  0
    3.4515   -3.3168    0.0000 C   0  0  0  0  0  4  0  0  0  0  0  0
    2.3010   -3.9905    0.0000 C   0  0  0  0  0  4  0  0  0  0  0  0
    1.1505   -3.3168    0.0000 C   0  0  0  0  0  4  0  0  0  0  0  0
    1.1505   -1.9901    0.0000 C   0  0  0  0  0  4  0  0  0  0  0  0
    2.3010   -1.3267    0.0000 C   0  0  0  0  0  4  0  0  0  0  0  0
    3.4515   -1.9901    0.0000 C   0  0  0  0  0  4  0  0  0  0  0  0
    0.0000   -1.3267    0.0000 C   0  0  0  0  0  4  0  0  0  0  0  0
    0.0000    0.0000    0.0000 C   0  0  0  0  0  4  0  0  0  0  0  0
    5.7629   -3.3168    0.0000 C   0  0  0  0  0  4  0  0  0  0  0  0
    5.7629   -1.9901    0.0000 C   0  0  0  0  0  4  0  0  0  0  0  0
    6.9134   -1.3267    0.0000 C   0  0  0  0  0  4  0  0  0  0  0  0
    8.0639   -1.9901    0.0000 C   0  0  0  0  0  4  0  0  0  0  0  0
    8.0639   -3.3168    0.0000 C   0  0  0  0  0  4  0  0  0  0  0  0
    6.9134   -3.9905    0.0000 C   0  0  0  0  0  4  0  0  0  0  0  0
    9.2144   -1.3267    0.0000 C   0  0  0  0  0  4  0  0  0  0  0  0
   10.3649   -1.9901    0.0000 C   0  0  0  0  0  4  0  0  0  0  0  0
    3.4515   -5.9805    0.0000 Cl  0  0  0  0  0  1  0  0  0  0  0  0
  1  2  1  0  0  0  0 
  2  3  1  0  0  0  0 
  2 20  1  0  0  0  0 
  3  4  1  0  0  0  0 
  3 12  1  0  0  0  0 
  4  5  2  0  0  0  0 
  4  9  1  0  0  0  0 
  5  6  1  0  0  0  0 
  6  7  2  0  0  0  0 
  7  8  1  0  0  0  0 
  7 10  1  0  0  0  0 
  8  9  2  0  0  0  0 
 10 11  1  0  0  0  0 
 12 13  2  0  0  0  0 
 12 17  1  0  0  0  0 
 13 14  1  0  0  0  0 
 14 15  2  0  0  0  0 
 15 16  1  0  0  0  0 
 15 18  1  0  0  0  0 
 16 17  2  0  0  0  0 
 18 19  1  0  0  0  0 
M  END
> <CDK Fingerprint>
AQAAAAAAAAAAAAAAgAAAEAEAAAAAAAAAAAAAAAAAAAgAAMAAAAEAAAAAAQIAAAAgAAAABgAAAEABAABAAAADABQIACAAgAAAIAAIAAAgAAgAAAAAAAAAgIABAAAAhAAgAIAAQCAAAAAAAAJAAAQAAAAUAIAAAEEAAAAAAAgAAA==

> <ActivityOutcome_CPDBAS_Rat>
inactive

$$$$

  CDK     0721101958

 15 16  0  0  0  0  0  0  0  0999 V2000
    0.0000   -4.2176    0.0000 C   0  0  0  0  0  4  0  0  0  0  0  0
    1.3110   -3.9889    0.0000 C   0  0  0  0  0  4  0  0  0  0  0  0
    1.3110   -2.6611    0.0000 C   0  0  0  0  0  4  0  0  0  0  0  0
    0.1562   -1.9972    0.0000 C   0  0  0  0  0  4  0  0  0  0  0  0
    0.1562   -0.6639    0.0000 C   0  0  0  0  0  4  0  0  0  0  0  0
    1.3110    0.0000    0.0000 C   0  0  0  0  0  4  0  0  0  0  0  0
    2.4603   -0.6639    0.0000 C   0  0  0  0  0  4  0  0  0  0  0  0
    2.4603   -1.9972    0.0000 C   0  0  0  0  0  4  0  0  0  0  0  0
    2.6165   -4.2176    0.0000 C   0  0  0  0  0  4  0  0  0  0  0  0
    1.7629   -5.2386    0.0000 O   0  0  0  0  0  2  0  0  0  0  0  0
    3.8662   -3.7658    0.0000 C   0  0  0  0  0  4  0  0  0  0  0  0
    4.8871   -4.6193    0.0000 O   0  0  0  0  0  2  0  0  0  0  0  0
    4.1005   -2.4547    0.0000 O   0  0  0  0  0  2  0  0  0  0  0  0
    5.3502   -2.0028    0.0000 C   0  0  0  0  0  4  0  0  0  0  0  0
    5.5789   -0.6918    0.0000 C   0  0  0  0  0  4  0  0  0  0  0  0
  1  2  1  0  0  0  0 
  2  3  1  0  0  0  0 
  2  9  1  0  0  0  0 
  2 10  1  0  0  0  0 
  3  4  2  0  0  0  0 
  3  8  1  0  0  0  0 
  4  5  1  0  0  0  0 
  5  6  2  0  0  0  0 
  6  7  1  0  0  0  0 
  7  8  2  0  0  0  0 
  9 10  1  0  0  0  0 
  9 11  1  0  0  0  0 
 11 12  2  0  0  0  0 
 11 13  1  0  0  0  0 
 13 14  1  0  0  0  0 
 14 15  1  0  0  0  0 
M  END
> <CDK Fingerprint>
AoAAIAAAAAAAAhISAAAAADAJAAAAQAAAoAQAAYACEEAIQABgAYAAAAggAAAAAABYJAIBAAAAACBBAAAiQAAAAAAcCAQAAAAABAAAQGIABAAAAgAAACAAQACAEAAAIsIIICBQAEAgBAEAAAQCQBgECYCAHACAUjAEAAEAIAAAQAA=

> <ActivityOutcome_CPDBAS_Rat>
inactive

$$$$

  CDK     0721101958

  8  7  0  0  0  0  0  0  0  0999 V2000
    3.4566    0.0000    0.0000 N   0  0  0  0  0  3  0  0  0  0  0  0
    2.3044   -0.6637    0.0000 C   0  0  0  0  0  4  0  0  0  0  0  0
    1.1522    0.0000    0.0000 O   0  0  0  0  0  2  0  0  0  0  0  0
    2.3044   -1.9956    0.0000 N   0  0  0  0  0  3  0  0  0  0  0  0
    3.4566   -2.6593    0.0000 C   0  0  0  0  0  4  0  0  0  0  0  0
    4.6088   -1.9956    0.0000 C   0  0  0  0  0  4  0  0  0  0  0  0
    1.1522   -2.6593    0.0000 N   0  0  0  0  0  3  0  0  0  0  0  0
    0.0000   -1.9956    0.0000 O   0  0  0  0  0  2  0  0  0  0  0  0
  1  2  1  0  0  0  0 
  2  3  2  0  0  0  0 
  2  4  1  0  0  0  0 
  4  5  1  0  0  0  0 
  4  7  1  0  0  0  0 
  5  6  1  0  0  0  0 
  7  8  2  0  0  0  0 
M  END
> <CDK Fingerprint>
AhAASAAAgAAAAAAAAAAAAAAAAAAAAAAEBQAAYAAAAoAAAAAAAAABACAAAQAAAAAAAAAAAIAAAAKAAAAAAAAAAAAAAAAAAACAAAAAAAAAAAAAAAAAAAAAAAAARCAAAAAAAAAAAAAAAAAAAAAAAEAAAAAAAAAAAwAA

> <ActivityOutcome_CPDBAS_Rat>
active

> <TD50_Rat_mmol>
0.0081

$$$$

  CDK     0721101958

 14 14  0  0  0  0  0  0  0  0999 V2000
    1.9922   -3.2816    0.0000 O   0  0  0  0  0  2  0  0  0  0  0  0
    3.3267   -3.2816    0.0000 C   0  0  0  0  0  4  0  0  0  0  0  0
    4.1068   -2.2049    0.0000 C   0  0  0  0  0  4  0  0  0  0  0  0
    3.6942   -0.9413    0.0000 C   0  0  0  0  0  4  0  0  0  0  0  0
    4.6355    0.0000    0.0000 O   0  0  0  0  0  2  0  0  0  0  0  0
    2.4112   -0.5931    0.0000 C   0  0  0  0  0  4  0  0  0  0  0  0
    1.4700   -1.5344    0.0000 O   0  0  0  0  0  2  0  0  0  0  0  0
    5.3705   -2.6176    0.0000 O   0  0  0  0  0  2  0  0  0  0  0  0
    5.3705   -3.9457    0.0000 C   0  0  0  0  0  4  0  0  0  0  0  0
    6.4472   -4.7258    0.0000 O   0  0  0  0  0  2  0  0  0  0  0  0
    4.1068   -4.3583    0.0000 C   0  0  0  0  0  4  0  0  0  0  0  0
    3.6942   -5.6219    0.0000 O   0  0  0  0  0  2  0  0  0  0  0  0
    1.3281   -4.4357    0.0000 C   0  0  0  0  0  4  0  0  0  0  0  0
    0.0000   -4.4357    0.0000 C   0  0  0  0  0  4  0  0  0  0  0  0
  1  2  1  0  0  0  0 
  1 13  1  0  0  0  0 
  2  3  1  0  0  0  0 
  2 11  2  0  0  0  0 
  3  4  1  0  0  0  0 
  3  8  1  1  0  0  0 
  4  5  1  6  0  0  0 
  4  6  1  0  0  0  0 
  6  7  1  0  0  0  0 
  8  9  1  0  0  0  0 
  9 10  2  0  0  0  0 
  9 11  1  0  0  0  0 
 11 12  1  0  0  0  0 
 13 14  1  0  0  0  0 
M  END
> <CDK Fingerprint>
ANCEAQABAABAICACAAAAAhAAAAAADFUQgBIBQcEAABAQAABgBIAAAAAgAAABAABYJBICABCQEAIhAAABQAAAAAAAAAGFQgAAAAAAAFIgIGEQAAAACCABQAAAEAACAEIAAABABAAAAAAAAAEgABAAIMEAIAEA8DgAdAAAQEAAAhg=

> <ActivityOutcome_CPDBAS_Rat>
inactive

$$$$

  CDK     0721101958

  8  8  0  0  0  0  0  0  0  0999 V2000
    0.0000    0.0000    0.0000 C   0  0  0  0  0  4  0  0  0  0  0  0
    0.6654   -1.1540    0.0000 C   0  0  0  0  0  4  0  0  0  0  0  0
    1.9962   -1.1540    0.0000 C   0  0  0  0  0  4  0  0  0  0  0  0
    2.6569    0.0000    0.0000 C   0  0  0  0  0  4  0  0  0  0  0  0
    3.9877    0.0000    0.0000 C   0  0  0  0  0  4  0  0  0  0  0  0
    4.6531   -1.1540    0.0000 C   0  0  0  0  0  4  0  0  0  0  0  0
    3.9877   -2.3033    0.0000 C   0  0  0  0  0  4  0  0  0  0  0  0
    2.6569   -2.3033    0.0000 C   0  0  0  0  0  4  0  0  0  0  0  0
  1  2  1  0  0  0  0 
  2  3  1  0  0  0  0 
  3  4  2  0  0  0  0 
  3  8  1  0  0  0  0 
  4  5  1  0  0  0  0 
  5  6  2  0  0  0  0 
  6  7  1  0  0  0  0 
  7  8  2  0  0  0  0 
M  END
> <CDK Fingerprint>
CAAAQAAAAAAAAAAAAAAAACAAAAAAAAAAQAAAAEAAAAAABAgAAAAAAAAAAAAAAAAAAAAAAAAAAAAAgAAAAACAACAAAABAIAAAAAAAAkAABAAAABQAgAAAAAAAAAAAAAAA

> <ActivityOutcome_CPDBAS_Rat>
active

> <TD50_Rat_mmol>
0.684

$$$$

  CDK     0721101958

  3  3  0  0  0  0  0  0  0  0999 V2000
    0.0000   -1.1518    0.0000 C   0  0  0  0  0  4  0  0  0  0  0  0
    0.6650    0.0000    0.0000 C   0  0  0  0  0  4  0  0  0  0  0  0
    1.3300   -1.1518    0.0000 O   0  0  0  0  0  2  0  0  0  0  0  0
  1  2  1  0  0  0  0 
  1  3  1  0  0  0  0 
  2  3  1  0  0  0  0 
M  END
> <CDK Fingerprint>
AgAAAAAAAAAAAAAAAIAAAAAAAAAAAAAAYAAAAAAAAAAAAAAAACAAAAAAAAAAAAAAAAAAAAAAAAAAAAAAAAAAAAAAAAAAAAAAAAAAAAAAABAAAAAAAAAAAAAAAAAAAAAAAAAAAAAAAAAAAAAAAAAAAAAAAAAA

> <ActivityOutcome_CPDBAS_Rat>
active

> <TD50_Rat_mmol>
0.484

$$$$

  CDK     0721101958

  6  6  0  0  0  0  0  0  0  0999 V2000
    0.0000   -1.0738    0.0000 S   0  0  0  0  0  2  0  0  0  0  0  0
    1.3304   -1.0738    0.0000 C   0  0  0  0  0  4  0  0  0  0  0  0
    2.1104    0.0000    0.0000 N   0  0  0  0  0  3  0  0  0  0  0  0
    3.3767   -0.4086    0.0000 C   0  0  0  0  0  4  0  0  0  0  0  0
    3.3767   -1.7390    0.0000 C   0  0  0  0  0  4  0  0  0  0  0  0
    2.1104   -2.1509    0.0000 N   0  0  0  0  0  3  0  0  0  0  0  0
  1  2  2  0  0  0  0 
  2  3  1  0  0  0  0 
  2  6  1  0  0  0  0 
  3  4  1  0  0  0  0 
  4  5  1  0  0  0  0 
  5  6  1  0  0  0  0 
M  END
> <CDK Fingerprint>
AhAAQAABAAAAAAAAAAACAAAAAAAAAAAAAAABYAAAAIAAACAAAAgAACAAAAABAAAAAAAAAIAAAAAAAAAAAAAAAAAAAAAAAACAAAAAAAAAAAAAEAAAAAAAAAAAAAAAAAAAAAAAAAAAAAAAAEAAAAAAAAAAAQAAAgAA

> <ActivityOutcome_CPDBAS_Rat>
active

> <TD50_Rat_mmol>
0.0796

$$$$

  CDK     0721101958

 10 12  0  0  0  0  0  0  0  0999 V2000
    5.8059    0.0000    0.0000 O   0  0  0  0  0  2  0  0  0  0  0  0
    4.4764    0.0000    0.0000 C   0  0  0  0  0  4  0  0  0  0  0  0
    5.1383   -1.1554    0.0000 C   0  0  0  0  0  4  0  0  0  0  0  0
    4.4764   -2.3050    0.0000 C   0  0  0  0  0  4  0  0  0  0  0  0
    3.1468   -2.3050    0.0000 C   0  0  0  0  0  4  0  0  0  0  0  0
    2.4791   -1.1554    0.0000 C   0  0  0  0  0  4  0  0  0  0  0  0
    3.1468    0.0000    0.0000 C   0  0  0  0  0  4  0  0  0  0  0  0
    1.1496   -1.1554    0.0000 C   0  0  0  0  0  4  0  0  0  0  0  0
    0.0000   -1.8173    0.0000 C   0  0  0  0  0  4  0  0  0  0  0  0
    0.0000   -0.4877    0.0000 O   0  0  0  0  0  2  0  0  0  0  0  0
  1  2  1  0  0  0  0 
  1  3  1  0  0  0  0 
  2  3  1  0  0  0  0 
  2  7  1  0  0  0  0 
  3  4  1  0  0  0  0 
  4  5  1  0  0  0  0 
  5  6  1  0  0  0  0 
  6  7  1  0  0  0  0 
  6  8  1  0  0  0  0 
  8  9  1  0  0  0  0 
  8 10  1  0  0  0  0 
  9 10  1  0  0  0  0 
M  END
> <CDK Fingerprint>
AIAAAAAAAAAAAAECBQAAABAkAAAAAAAAwAAAAAAAAAAQAQBgAIAAAAAAAAEhAAAQIAIiAASIAABAAAAAQGAAAAAAAAAAAgCAAAQAAEAAEQAAAAAAAAAAQAABEAAAAAAAAAAIAAAAQAAAAAAAABAAACAAAAAAABAAAAAAAAAAAAA=

> <ActivityOutcome_CPDBAS_Rat>
inactive

$$$$

  CDK     0721101958

  9  8  0  0  0  0  0  0  0  0999 V2000
    0.0000   -4.6059    0.0000 C   0  0  0  0  0  4  0  0  0  0  0  0
    0.6657   -3.4484    0.0000 C   0  0  0  0  0  4  0  0  0  0  0  0
    1.9971   -3.4484    0.0000 C   0  0  0  0  0  4  0  0  0  0  0  0
    2.6628   -2.3089    0.0000 C   0  0  0  0  0  4  0  0  0  0  0  0
    4.0001   -2.3089    0.0000 C   0  0  0  0  0  4  0  0  0  0  0  0
    4.6658   -3.4484    0.0000 C   0  0  0  0  0  4  0  0  0  0  0  0
    4.6658   -1.1515    0.0000 C   0  0  0  0  0  4  0  0  0  0  0  0
    4.0001    0.0000    0.0000 C   0  0  0  0  0  4  0  0  0  0  0  0
    5.9972   -3.4484    0.0000 O   0  0  0  0  0  2  0  0  0  0  0  0
  1  2  1  0  0  0  0 
  2  3  1  0  0  0  0 
  3  4  1  0  0  0  0 
  4  5  1  0  0  0  0 
  5  6  1  0  0  0  0 
  5  7  1  0  0  0  0 
  6  9  1  0  0  0  0 
  7  8  1  0  0  0  0 
M  END
> <CDK Fingerprint>
AgAAAAAAAAAAAAAAAEAAAAAAAAAAAAEAYAAAAAAAAAAAAAAAECAAIAAAAAAAAAAAAEBAAAAAAAAAAAAAAAAAAAAAAAEAAAAAAAAAAAAAABAAAAAAAAAAAAAAAAAAAAAAAAAQAAAAAAAAAAAQAAAAAAAAAAAA

> <ActivityOutcome_CPDBAS_Rat>
inactive

$$$$

  CDK     0721101958

 26 25  0  0  0  0  0  0  0  0999 V2000
   14.9694   -5.9739    0.0000 C   0  0  0  0  0  4  0  0  0  0  0  0
   16.1089   -5.3178    0.0000 C   0  0  0  0  0  4  0  0  0  0  0  0
   16.1089   -3.9884    0.0000 C   0  0  0  0  0  4  0  0  0  0  0  0
   14.9694   -3.3150    0.0000 C   0  0  0  0  0  4  0  0  0  0  0  0
   13.8126   -3.9884    0.0000 O   0  0  0  0  0  2  0  0  0  0  0  0
   12.6558   -3.3150    0.0000 C   0  0  0  0  0  4  0  0  0  0  0  0
   12.6558   -1.9856    0.0000 O   0  0  0  0  0  2  0  0  0  0  0  0
   11.5162   -3.9884    0.0000 C   0  0  0  0  0  4  0  0  0  0  0  0
   10.3594   -3.3150    0.0000 C   0  0  0  0  0  4  0  0  0  0  0  0
    9.2026   -3.9884    0.0000 C   0  0  0  0  0  4  0  0  0  0  0  0
    8.0631   -3.3150    0.0000 C   0  0  0  0  0  4  0  0  0  0  0  0
    6.9063   -3.9884    0.0000 C   0  0  0  0  0  4  0  0  0  0  0  0
    5.7495   -3.3150    0.0000 O   0  0  0  0  0  2  0  0  0  0  0  0
    6.9063   -5.3178    0.0000 O   0  0  0  0  0  2  0  0  0  0  0  0
    5.7495   -5.9739    0.0000 C   0  0  0  0  0  4  0  0  0  0  0  0
    4.6099   -5.3178    0.0000 C   0  0  0  0  0  4  0  0  0  0  0  0
    3.4531   -5.9739    0.0000 C   0  0  0  0  0  4  0  0  0  0  0  0
    2.2963   -5.3178    0.0000 C   0  0  0  0  0  4  0  0  0  0  0  0
    1.1568   -5.9739    0.0000 C   0  0  0  0  0  4  0  0  0  0  0  0
    0.0000   -5.3178    0.0000 C   0  0  0  0  0  4  0  0  0  0  0  0
    4.6099   -3.9884    0.0000 C   0  0  0  0  0  4  0  0  0  0  0  0
    3.4531   -3.3150    0.0000 C   0  0  0  0  0  4  0  0  0  0  0  0
   17.2657   -3.3150    0.0000 C   0  0  0  0  0  4  0  0  0  0  0  0
   17.2657   -1.9856    0.0000 C   0  0  0  0  0  4  0  0  0  0  0  0
   16.1089   -1.3295    0.0000 C   0  0  0  0  0  4  0  0  0  0  0  0
   16.1089    0.0000    0.0000 C   0  0  0  0  0  4  0  0  0  0  0  0
  1  2  1  0  0  0  0 
  2  3  1  0  0  0  0 
  3  4  1  0  0  0  0 
  3 23  1  0  0  0  0 
  4  5  1  0  0  0  0 
  5  6  1  0  0  0  0 
  6  7  2  0  0  0  0 
  6  8  1  0  0  0  0 
  8  9  1  0  0  0  0 
  9 10  1  0  0  0  0 
 10 11  1  0  0  0  0 
 11 12  1  0  0  0  0 
 12 13  2  0  0  0  0 
 12 14  1  0  0  0  0 
 14 15  1  0  0  0  0 
 15 16  1  0  0  0  0 
 16 17  1  0  0  0  0 
 16 21  1  0  0  0  0 
 17 18  1  0  0  0  0 
 18 19  1  0  0  0  0 
 19 20  1  0  0  0  0 
 21 22  1  0  0  0  0 
 23 24  1  0  0  0  0 
 24 25  1  0  0  0  0 
 25 26  1  0  0  0  0 
M  END
> <CDK Fingerprint>
AICAAAAAAAAIAIACBAAAABAEIAAAAAAAwAAAAIAAAAABAQBgAIAAAAAAAAEAAABQIAIgAAAAAAAAAAAgQEAAAAAAAAAAAgGAAAQAAEAAEQAAAAAAAAAAQAABEAAAAAAAAABIAQAAAAAAAAAAABAAAQAAAAAAUBCAAAAAAAQAAAA=

> <ActivityOutcome_CPDBAS_Rat>
inactive

$$$$

  CDK     0721101958

 28 28  0  0  0  0  0  0  0  0999 V2000
    7.9814   -3.4555    0.0000 O   0  0  0  0  0  2  0  0  0  0  0  0
    7.3086   -4.6023    0.0000 C   0  0  0  0  0  4  0  0  0  0  0  0
    7.9814   -5.7490    0.0000 C   0  0  0  0  0  4  0  0  0  0  0  0
    9.3116   -5.7490    0.0000 C   0  0  0  0  0  4  0  0  0  0  0  0
    9.9691   -6.9111    0.0000 C   0  0  0  0  0  4  0  0  0  0  0  0
    9.3116   -8.0578    0.0000 C   0  0  0  0  0  4  0  0  0  0  0  0
    7.9814   -8.0578    0.0000 C   0  0  0  0  0  4  0  0  0  0  0  0
    7.3086   -6.9111    0.0000 C   0  0  0  0  0  4  0  0  0  0  0  0
    9.9691   -4.6023    0.0000 C   0  0  0  0  0  4  0  0  0  0  0  0
   11.2993   -4.6023    0.0000 O   0  0  0  0  0  2  0  0  0  0  0  0
    9.3116   -3.4555    0.0000 O   0  0  0  0  0  2  0  0  0  0  0  0
    9.9691   -2.2935    0.0000 C   0  0  0  0  0  4  0  0  0  0  0  0
   11.2993   -2.2935    0.0000 C   0  0  0  0  0  4  0  0  0  0  0  0
   11.9721   -1.1467    0.0000 C   0  0  0  0  0  4  0  0  0  0  0  0
   13.3023   -1.1467    0.0000 C   0  0  0  0  0  4  0  0  0  0  0  0
   13.9598    0.0000    0.0000 C   0  0  0  0  0  4  0  0  0  0  0  0
   15.2900    0.0000    0.0000 C   0  0  0  0  0  4  0  0  0  0  0  0
   11.9721   -3.4555    0.0000 C   0  0  0  0  0  4  0  0  0  0  0  0
   13.3023   -3.4555    0.0000 C   0  0  0  0  0  4  0  0  0  0  0  0
    5.9784   -4.6023    0.0000 O   0  0  0  0  0  2  0  0  0  0  0  0
    5.3209   -3.4555    0.0000 C   0  0  0  0  0  4  0  0  0  0  0  0
    3.9907   -3.4555    0.0000 C   0  0  0  0  0  4  0  0  0  0  0  0
    3.3179   -4.6023    0.0000 C   0  0  0  0  0  4  0  0  0  0  0  0
    1.9877   -4.6023    0.0000 C   0  0  0  0  0  4  0  0  0  0  0  0
    1.3302   -5.7490    0.0000 C   0  0  0  0  0  4  0  0  0  0  0  0
    0.0000   -5.7490    0.0000 C   0  0  0  0  0  4  0  0  0  0  0  0
    3.3179   -2.2935    0.0000 C   0  0  0  0  0  4  0  0  0  0  0  0
    1.9877   -2.2935    0.0000 C   0  0  0  0  0  4  0  0  0  0  0  0
  1  2  2  0  0  0  0 
  2  3  1  0  0  0  0 
  2 20  1  0  0  0  0 
  3  4  2  0  0  0  0 
  3  8  1  0  0  0  0 
  4  5  1  0  0  0  0 
  4  9  1  0  0  0  0 
  5  6  2  0  0  0  0 
  6  7  1  0  0  0  0 
  7  8  2  0  0  0  0 
  9 10  2  0  0  0  0 
  9 11  1  0  0  0  0 
 11 12  1  0  0  0  0 
 12 13  1  0  0  0  0 
 13 14  1  0  0  0  0 
 13 18  1  0  0  0  0 
 14 15  1  0  0  0  0 
 15 16  1  0  0  0  0 
 16 17  1  0  0  0  0 
 18 19  1  0  0  0  0 
 20 21  1  0  0  0  0 
 21 22  1  0  0  0  0 
 22 23  1  0  0  0  0 
 22 27  1  0  0  0  0 
 23 24  1  0  0  0  0 
 24 25  1  0  0  0  0 
 25 26  1  0  0  0  0 
 27 28  1  0  0  0  0 
M  END
> <CDK Fingerprint>
AoCIAEAAAAAIAoACAAAAABABAACAAAAAwAAAAIAAAAAQAQBoAIAABAAACAMAgABQIAIgAAAAgCBAAAAQQEAAAAAMAAABAAAAAAQAAEIAAQAAAgAAIACAQACBEAAAKICAIABIQUAgBAAAEAACQRgECACAEAygUBjACAEAcAAgAAA=

> <ActivityOutcome_CPDBAS_Rat>
active

> <TD50_Rat_mmol>
1.83

$$$$

  CDK     0721101958

 11 10  0  0  0  0  0  0  0  0999 V2000
    2.2999   -3.9852    0.0000 O   0  0  0  0  0  2  0  0  0  0  0  0
    2.2999   -2.6591    0.0000 C   0  0  0  0  0  4  0  0  0  0  0  0
    1.1534   -1.9891    0.0000 N   0  0  0  0  0  3  0  0  0  0  0  0
    1.1534   -0.6630    0.0000 C   0  0  0  0  0  4  0  0  0  0  0  0
    0.0000    0.0000    0.0000 C   0  0  0  0  0  4  0  0  0  0  0  0
    0.0000   -2.6591    0.0000 N   0  0  0  0  0  3  0  0  0  0  0  0
    0.0000   -3.9852    0.0000 O   0  0  0  0  0  2  0  0  0  0  0  0
    3.4534   -1.9891    0.0000 N   0  0  0  0  0  3  0  0  0  0  0  0
    4.6068   -2.6591    0.0000 C   0  0  0  0  0  4  0  0  0  0  0  0
    5.7533   -1.9891    0.0000 C   0  0  0  0  0  4  0  0  0  0  0  0
    6.9067   -2.6591    0.0000 O   0  0  0  0  0  2  0  0  0  0  0  0
  1  2  2  0  0  0  0 
  2  3  1  0  0  0  0 
  2  8  1  0  0  0  0 
  3  4  1  0  0  0  0 
  3  6  1  0  0  0  0 
  4  5  1  0  0  0  0 
  6  7  2  0  0  0  0 
  8  9  1  0  0  0  0 
  9 10  1  0  0  0  0 
 10 11  1  0  0  0  0 
M  END
> <CDK Fingerprint>
CAAAAAIQAEoAAIAAAAAAAAAAAAAAAAAAAAAABAUAIGAAAAKAAAAAAAAAAQggIAEAAiAAoAAAAACAAAACgAAAAAAAAAEAAAAAAAAAgAAAAEAAAAAAAAAQAAAAAAAAAEQgAAAAAAAAAAAAAAAAAABAAABABAAAgAAAAAMAAA==

> <ActivityOutcome_CPDBAS_Rat>
active

> <TD50_Rat_mmol>
0.00324

$$$$

  CDK     0721101958

 12 11  0  0  0  0  0  0  0  0999 V2000
    2.3006   -3.9862    0.0000 O   0  0  0  0  0  2  0  0  0  0  0  0
    2.3006   -2.6598    0.0000 C   0  0  0  0  0  4  0  0  0  0  0  0
    1.1537   -1.9897    0.0000 N   0  0  0  0  0  3  0  0  0  0  0  0
    1.1537   -0.6632    0.0000 C   0  0  0  0  0  4  0  0  0  0  0  0
    0.0000    0.0000    0.0000 C   0  0  0  0  0  4  0  0  0  0  0  0
    0.0000   -2.6598    0.0000 N   0  0  0  0  0  3  0  0  0  0  0  0
    0.0000   -3.9862    0.0000 O   0  0  0  0  0  2  0  0  0  0  0  0
    3.4543   -1.9897    0.0000 N   0  0  0  0  0  3  0  0  0  0  0  0
    4.6080   -2.6598    0.0000 C   0  0  0  0  0  4  0  0  0  0  0  0
    5.7548   -1.9897    0.0000 C   0  0  0  0  0  4  0  0  0  0  0  0
    5.7548   -0.6632    0.0000 O   0  0  0  0  0  2  0  0  0  0  0  0
    6.9086   -2.6598    0.0000 C   0  0  0  0  0  4  0  0  0  0  0  0
  1  2  2  0  0  0  0 
  2  3  1  0  0  0  0 
  2  8  1  0  0  0  0 
  3  4  1  0  0  0  0 
  3  6  1  0  0  0  0 
  4  5  1  0  0  0  0 
  6  7  2  0  0  0  0 
  8  9  1  0  0  0  0 
  9 10  1  0  0  0  0 
 10 11  2  0  0  0  0 
 10 12  1  0  0  0  0 
M  END
> <CDK Fingerprint>
CAAAAAIQAEoAAYAAAAAQAAAAAAAAAAAAAAAABAUAIGAAAAKAgAAAAAAAAQEiAEEAAgAEAAAABADAAAACgAAAAAEAAAEAAAAAAAAAgAAAAAAgAAAAAAAAAAAAAAAAAEQgAAAAAAAAAAAAAAAAgABAAABQACIAAAAACAMAAA==

> <ActivityOutcome_CPDBAS_Rat>
active

> <TD50_Rat_mmol>
0.00105

$$$$

  CDK     0721101958

  7  6  0  0  0  0  0  0  0  0999 V2000
    3.3255    0.0000    0.0000 N   0  0  0  0  0  3  0  0  0  0  0  0
    2.6628   -1.1537    0.0000 C   0  0  0  0  0  4  0  0  0  0  0  0
    1.9961   -2.3035    0.0000 N   0  0  0  0  0  3  0  0  0  0  0  0
    2.6628   -3.4572    0.0000 C   0  0  0  0  0  4  0  0  0  0  0  0
    3.9922   -3.4572    0.0000 C   0  0  0  0  0  4  0  0  0  0  0  0
    0.6667   -2.3035    0.0000 N   0  0  0  0  0  3  0  0  0  0  0  0
    0.0000   -1.1537    0.0000 O   0  0  0  0  0  2  0  0  0  0  0  0
  1  2  3  0  0  0  0 
  2  3  1  0  0  0  0 
  3  4  1  0  0  0  0 
  3  6  1  0  0  0  0 
  4  5  1  0  0  0  0 
  6  7  2  0  0  0  0 
M  END
> <CDK Fingerprint>
AgAABAAAgAAAAAAAAAAAAAAAAAAgAIAEAQAAYAAAAAAAAAAAAAAAACAAAQAAAAAAAAAAAIAAAAAAAAAAAAAAAAAAAAAAAACAAAAAAAAAAAAAAAAAAAAAAAAABCAAAAAAAAAAAAAAAAAAAAAAAAAAIgAAAAAAAwAA

> <ActivityOutcome_CPDBAS_Rat>
active

> <TD50_Rat_mmol>
0.0371

$$$$

  CDK     0721101958

 15 15  0  0  0  0  0  0  0  0999 V2000
    5.9866   -3.4543    0.0000 O   0  0  0  0  0  2  0  0  0  0  0  0
    4.6576   -3.4543    0.0000 C   0  0  0  0  0  4  0  0  0  0  0  0
    3.9930   -4.6097    0.0000 C   0  0  0  0  0  4  0  0  0  0  0  0
    2.6580   -4.6097    0.0000 C   0  0  0  0  0  4  0  0  0  0  0  0
    1.9935   -5.7591    0.0000 C   0  0  0  0  0  4  0  0  0  0  0  0
    0.6645   -5.7591    0.0000 C   0  0  0  0  0  4  0  0  0  0  0  0
    0.0000   -4.6097    0.0000 C   0  0  0  0  0  4  0  0  0  0  0  0
    0.6645   -3.4543    0.0000 C   0  0  0  0  0  4  0  0  0  0  0  0
    1.9935   -3.4543    0.0000 C   0  0  0  0  0  4  0  0  0  0  0  0
    4.6576   -5.7591    0.0000 C   0  0  0  0  0  4  0  0  0  0  0  0
    5.9866   -5.7591    0.0000 C   0  0  0  0  0  4  0  0  0  0  0  0
    3.9930   -2.3048    0.0000 N   0  0  0  0  0  3  0  0  0  0  0  0
    4.6576   -1.1494    0.0000 C   0  0  0  0  0  4  0  0  0  0  0  0
    3.9930    0.0000    0.0000 O   0  0  0  0  0  2  0  0  0  0  0  0
    5.9866   -1.1494    0.0000 N   0  0  0  0  0  3  0  0  0  0  0  0
  1  2  2  0  0  0  0 
  2  3  1  0  0  0  0 
  2 12  1  0  0  0  0 
  3  4  1  0  0  0  0 
  3 10  1  0  0  0  0 
  4  5  2  0  0  0  0 
  4  9  1  0  0  0  0 
  5  6  1  0  0  0  0 
  6  7  2  0  0  0  0 
  7  8  1  0  0  0  0 
  8  9  2  0  0  0  0 
 10 11  1  0  0  0  0 
 12 13  1  0  0  0  0 
 13 14  2  0  0  0  0 
 13 15  1  0  0  0  0 
M  END
> <CDK Fingerprint>
EACAAhAEUAIBAAAACAAIAAAAAAACAAAAAAQACAAAYAAACIAAAAAAAAABQCAAQAACAAAAQAAAINAAAACABAwgAAAAQAQAEgAAAACAAABAACAAQAAAggAAAACAACAAQABAJAQAAAAAAsAQBAEgABwAgFAABAAAAQAgAgAA

> <ActivityOutcome_CPDBAS_Rat>
inactive

$$$$

  CDK     0721101958

 28 31  0  0  0  0  0  0  0  0999 V2000
    9.2343   -3.8992    0.0000 C   0  0  0  0  0  4  0  0  0  0  0  0
   10.4989   -3.5435    0.0000 C   0  0  0  0  0  4  0  0  0  0  0  0
    9.2343   -5.2297    0.0000 C   0  0  0  0  0  4  0  0  0  0  0  0
    5.7961   -7.2452    0.0000 C   0  0  0  0  0  4  0  0  0  0  0  0
    8.1014   -5.9147    0.0000 C   0  0  0  0  0  4  0  0  0  0  0  0
    6.9290   -5.2297    0.0000 C   0  0  0  0  0  4  0  0  0  0  0  0
    5.7961   -5.9147    0.0000 C   0  0  0  0  0  4  0  0  0  0  0  0
   11.8294   -3.5567    0.0000 C   0  0  0  0  0  4  0  0  0  0  0  0
    4.6237   -7.8906    0.0000 C   0  0  0  0  0  4  0  0  0  0  0  0
    8.1014   -3.2406    0.0000 C   0  0  0  0  0  4  0  0  0  0  0  0
   10.8546   -2.2131    0.0000 O   0  0  0  0  0  2  0  0  0  0  0  0
    6.9290   -3.8992    0.0000 C   0  0  0  0  0  4  0  0  0  0  0  0
   10.4989   -5.6381    0.0000 C   0  0  0  0  0  4  0  0  0  0  0  0
    8.1014   -7.2452    0.0000 C   0  0  0  0  0  4  0  0  0  0  0  0
   13.1730   -3.5567    0.0000 C   0  0  0  0  0  4  0  0  0  0  0  0
    4.6237   -5.2297    0.0000 C   0  0  0  0  0  4  0  0  0  0  0  0
    9.9061   -1.2646    0.0000 C   0  0  0  0  0  4  0  0  0  0  0  0
   11.2761   -4.5447    0.0000 C   0  0  0  0  0  4  0  0  0  0  0  0
    6.9290   -7.8906    0.0000 C   0  0  0  0  0  4  0  0  0  0  0  0
    1.1461   -7.2715    0.0000 C   0  0  0  0  0  4  0  0  0  0  0  0
    3.4513   -7.2452    0.0000 C   0  0  0  0  0  4  0  0  0  0  0  0
    2.3185   -7.9038    0.0000 O   0  0  0  0  0  2  0  0  0  0  0  0
   10.2486    0.0000    0.0000 O   0  0  0  0  0  2  0  0  0  0  0  0
    0.0000   -7.9038    0.0000 O   0  0  0  0  0  2  0  0  0  0  0  0
    3.4513   -5.9147    0.0000 C   0  0  0  0  0  4  0  0  0  0  0  0
    9.2343   -2.5687    0.0000 C   0  0  0  0  0  4  0  0  0  0  0  0
    8.6415   -1.6203    0.0000 C   0  0  0  0  0  4  0  0  0  0  0  0
    1.1461   -5.9410    0.0000 C   0  0  0  0  0  4  0  0  0  0  0  0
  1  2  1  0  0  0  0 
  1  3  1  0  0  0  0 
  1 10  1  0  0  0  0 
  1 26  1  1  0  0  0 
  2  8  1  6  0  0  0 
  2 11  1  0  0  0  0 
  2 18  1  0  0  0  0 
  3  5  1  0  0  0  0 
  3 13  1  0  0  0  0 
  4  7  1  0  0  0  0 
  4  9  2  0  0  0  0 
  4 19  1  0  0  0  0 
  5 14  1  0  0  0  0 
  5  6  1  0  0  0  0 
  6 12  1  0  0  0  0 
  6  7  1  0  0  0  0 
  7 16  1  0  0  0  0 
  8 15  3  0  0  0  0 
  9 21  1  0  0  0  0 
 10 12  1  0  0  0  0 
 11 17  1  0  0  0  0 
 13 18  1  0  0  0  0 
 14 19  1  0  0  0  0 
 16 25  1  0  0  0  0 
 17 23  2  0  0  0  0 
 17 27  1  0  0  0  0 
 20 22  1  0  0  0  0 
 20 24  2  0  0  0  0 
 20 28  1  0  0  0  0 
 21 25  1  0  0  0  0 
 21 22  1  1  0  0  0 
M  END
> <CDK Fingerprint>
AMCAAQAAAABIAAACIQEEABCoBAaABEAA4BAAAoABAAAAUQjgAIAAAAAAAQEgEABQIAIpAAQwEAAAAAAAQEQEAAAAACAEAAAACAQAAEAAAUAgAAACAAAAQABBMAAAAAAAAABIAQAAQgACAAAAABAAAAUAAAQA0BiAAAADQACAACg=

> <ActivityOutcome_CPDBAS_Rat>
inactive

$$$$

  CDK     0721101958

 21 23  0  0  0  0  0  0  0  0999 V2000
    3.3395    0.0000    0.0000 C   0  0  0  0  0  4  0  0  0  0  0  0
    3.9288   -1.1983    0.0000 C   0  0  0  0  0  4  0  0  0  0  0  0
    3.1725   -2.3082    0.0000 C   0  0  0  0  0  4  0  0  0  0  0  0
    4.4002   -2.8385    0.0000 C   0  0  0  0  0  4  0  0  0  0  0  0
    4.5377   -4.1645    0.0000 C   0  0  0  0  0  4  0  0  0  0  0  0
    5.8342   -4.4395    0.0000 C   0  0  0  0  0  4  0  0  0  0  0  0
    6.5021   -3.2903    0.0000 C   0  0  0  0  0  4  0  0  0  0  0  0
    7.8281   -3.2903    0.0000 C   0  0  0  0  0  4  0  0  0  0  0  0
    8.4960   -4.4395    0.0000 C   0  0  0  0  0  4  0  0  0  0  0  0
    7.8281   -5.5887    0.0000 C   0  0  0  0  0  4  0  0  0  0  0  0
    6.5021   -5.5887    0.0000 C   0  0  0  0  0  4  0  0  0  0  0  0
    8.4960   -2.1314    0.0000 C   0  0  0  0  0  4  0  0  0  0  0  0
    9.8219   -2.1314    0.0000 C   0  0  0  0  0  4  0  0  0  0  0  0
    5.6083   -2.2983    0.0000 N   0  0  0  0  0  3  0  0  0  0  0  0
    3.4573   -4.9404    0.0000 C   0  0  0  0  0  4  0  0  0  0  0  0
    2.2492   -4.4002    0.0000 C   0  0  0  0  0  4  0  0  0  0  0  0
    2.1019   -3.0841    0.0000 O   0  0  0  0  0  2  0  0  0  0  0  0
    2.2296   -1.3652    0.0000 C   0  0  0  0  0  4  0  0  0  0  0  0
    0.9429   -1.7483    0.0000 C   0  0  0  0  0  4  0  0  0  0  0  0
    0.5991   -3.0252    0.0000 O   0  0  0  0  0  2  0  0  0  0  0  0
    0.0000   -0.8152    0.0000 O   0  0  0  0  0  2  0  0  0  0  0  0
  1  2  1  0  0  0  0 
  2  3  1  0  0  0  0 
  3  4  1  0  0  0  0 
  3 17  1  0  0  0  0 
  3 18  1  0  0  0  0 
  4  5  2  0  0  0  0 
  4 14  1  0  0  0  0 
  5  6  1  0  0  0  0 
  5 15  1  0  0  0  0 
  6  7  2  0  0  0  0 
  6 11  1  0  0  0  0 
  7  8  1  0  0  0  0 
  7 14  1  0  0  0  0 
  8  9  2  0  0  0  0 
  8 12  1  0  0  0  0 
  9 10  1  0  0  0  0 
 10 11  2  0  0  0  0 
 12 13  1  0  0  0  0 
 15 16  1  0  0  0  0 
 16 17  1  0  0  0  0 
 18 19  1  0  0  0  0 
 19 20  2  0  0  0  0 
 19 21  1  0  0  0  0 
M  END
> <CDK Fingerprint>
SuEAKk2QJgFA5sOeIsCTCAIJACCAAEBKoBUAqAKACEELEQjgEIBQQMmAEEAAEES4Jh4oCBgAADBAwAUiUJCIgAMdDAREgoQghD0BCKIAFAIAhgCAggqEQACAMgUILo6AMEDMAUA3DINcACACYRgGCYiBniCSUjAmICUQJAAAYCA=

> <ActivityOutcome_CPDBAS_Rat>
inactive

$$$$

  CDK     0721101958

 12 12  0  0  0  0  0  0  0  0999 V2000
    6.9143    0.0000    0.0000 O   0  0  0  0  0  2  0  0  0  0  0  0
    5.7605   -0.6696    0.0000 C   0  0  0  0  0  4  0  0  0  0  0  0
    5.7605   -2.0009    0.0000 C   0  0  0  0  0  4  0  0  0  0  0  0
    4.6068   -2.6624    0.0000 C   0  0  0  0  0  4  0  0  0  0  0  0
    3.4612   -2.0009    0.0000 C   0  0  0  0  0  4  0  0  0  0  0  0
    3.4612   -0.6696    0.0000 C   0  0  0  0  0  4  0  0  0  0  0  0
    4.6068    0.0000    0.0000 C   0  0  0  0  0  4  0  0  0  0  0  0
    2.3074   -2.6624    0.0000 C   0  0  0  0  0  4  0  0  0  0  0  0
    1.1537   -2.0009    0.0000 C   0  0  0  0  0  4  0  0  0  0  0  0
    0.0000   -2.6624    0.0000 C   0  0  0  0  0  4  0  0  0  0  0  0
    6.9143   -2.6624    0.0000 O   0  0  0  0  0  2  0  0  0  0  0  0
    8.0680   -2.0009    0.0000 C   0  0  0  0  0  4  0  0  0  0  0  0
  1  2  1  0  0  0  0 
  2  3  2  0  0  0  0 
  2  7  1  0  0  0  0 
  3  4  1  0  0  0  0 
  3 11  1  0  0  0  0 
  4  5  2  0  0  0  0 
  5  6  1  0  0  0  0 
  5  8  1  0  0  0  0 
  6  7  2  0  0  0  0 
  8  9  1  0  0  0  0 
  9 10  2  0  0  0  0 
 11 12  1  0  0  0  0 
M  END
> <CDK Fingerprint>
QAIAAAAAAAAIAAIAAAAAAAAAACgEAACAAAAAAAAACAgAAmEAAACAgAAAAAAAAAAgAAQgQAAQAEAAACBAAAAAAAYYAAAAAAIAAAIEAAAAgAAQAAAAAAAAAIAAAAAAgAAgAAIAQCAgIAIQAAJECAQCAgAUAIAAAAAAAAAAICAAAA==

> <ActivityOutcome_CPDBAS_Rat>
inactive

$$$$

  CDK     0721101958

 16 16  0  0  0  0  0  0  0  0999 V2000
    7.9773    0.0000    0.0000 S   0  0  0  0  0  2  0  0  0  0  0  0
    7.2786    1.2131    0.0000 P   0  0  0  0  0  5  0  0  0  0  0  0
    6.0655    0.5143    0.0000 O   0  0  0  0  0  2  0  0  0  0  0  0
    4.8525    1.2131    0.0000 C   0  0  0  0  0  4  0  0  0  0  0  0
    3.6393    0.5143    0.0000 C   0  0  0  0  0  4  0  0  0  0  0  0
    2.4262    1.2131    0.0000 C   0  0  0  0  0  4  0  0  0  0  0  0
    2.4262    2.6105    0.0000 C   0  0  0  0  0  4  0  0  0  0  0  0
    3.6393    3.3190    0.0000 C   0  0  0  0  0  4  0  0  0  0  0  0
    4.8525    2.6105    0.0000 C   0  0  0  0  0  4  0  0  0  0  0  0
    1.2130    3.3190    0.0000 S   0  0  0  0  0  2  0  0  0  0  0  0
    0.0000    2.6105    0.0000 C   0  0  0  0  0  4  0  0  0  0  0  0
    1.2130    0.5143    0.0000 C   0  0  0  0  0  4  0  0  0  0  0  0
    6.5798    2.4262    0.0000 O   0  0  0  0  0  2  0  0  0  0  0  0
    7.2786    3.6393    0.0000 C   0  0  0  0  0  4  0  0  0  0  0  0
    8.4917    1.9118    0.0000 O   0  0  0  0  0  2  0  0  0  0  0  0
    9.7048    1.2131    0.0000 C   0  0  0  0  0  4  0  0  0  0  0  0
  1  2  2  0  0  0  0 
  2  3  1  0  0  0  0 
  2 13  1  0  0  0  0 
  2 15  1  0  0  0  0 
  3  4  1  0  0  0  0 
  4  5  2  0  0  0  0 
  4  9  1  0  0  0  0 
  5  6  1  0  0  0  0 
  6  7  2  0  0  0  0 
  6 12  1  0  0  0  0 
  7  8  1  0  0  0  0 
  7 10  1  0  0  0  0 
  8  9  2  0  0  0  0 
 10 11  1  0  0  0  0 
 13 14  1  0  0  0  0 
 15 16  1  0  0  0  0 
M  END
> <CDK Fingerprint>
AgAAIAAEAEIAAgAgAAQAAAAAIAABCAAAAAAAAAAAAAADYRAABICAAAAAACAAACAEAGIAEAAhRABAEQAAgAAAhQAAAQAAAAAAEAQgAACAICAiAIAAAAAAhQACAAaAACAABADAISAIAgAAEsBQAAAgBAAAgAAAAAMiAAEAAQAA

> <ActivityOutcome_CPDBAS_Rat>
inactive

$$$$

  CDK     0721101958

 30 32  0  0  0  0  0  0  0  0999 V2000
    3.4569   -1.3252    0.0000 O   0  0  0  0  0  2  0  0  0  0  0  0
    3.4569   -2.6618    0.0000 C   0  0  0  0  0  4  0  0  0  0  0  0
    2.3046   -3.3186    0.0000 C   0  0  0  0  0  4  0  0  0  0  0  0
    2.3046   -4.6553    0.0000 C   0  0  0  0  0  4  0  0  0  0  0  0
    3.4569   -5.3237    0.0000 C   0  0  0  0  0  4  0  0  0  0  0  0
    3.4569   -6.6488    0.0000 C   0  0  0  0  0  4  0  0  0  0  0  0
    2.3046   -7.3171    0.0000 C   0  0  0  0  0  4  0  0  0  0  0  0
    1.1523   -6.6488    0.0000 C   0  0  0  0  0  4  0  0  0  0  0  0
    1.1523   -5.3237    0.0000 C   0  0  0  0  0  4  0  0  0  0  0  0
    2.3046   -8.6423    0.0000 Cl  0  0  0  0  0  1  0  0  0  0  0  0
    1.1523   -2.6618    0.0000 C   0  0  0  0  0  4  0  0  0  0  0  0
    0.0000   -3.3186    0.0000 C   0  0  0  0  0  4  0  0  0  0  0  0
    1.1523   -1.3252    0.0000 C   0  0  0  0  0  4  0  0  0  0  0  0
    4.6092   -3.3186    0.0000 O   0  0  0  0  0  2  0  0  0  0  0  0
    5.7615   -2.6618    0.0000 C   0  0  0  0  0  4  0  0  0  0  0  0
    6.9138   -3.3186    0.0000 C   0  0  0  0  0  4  0  0  0  0  0  0
    8.0661   -2.6618    0.0000 C   0  0  0  0  0  4  0  0  0  0  0  0
    9.2184   -3.3186    0.0000 C   0  0  0  0  0  4  0  0  0  0  0  0
    9.2184   -4.6553    0.0000 C   0  0  0  0  0  4  0  0  0  0  0  0
    8.0661   -5.3237    0.0000 C   0  0  0  0  0  4  0  0  0  0  0  0
    6.9138   -4.6553    0.0000 C   0  0  0  0  0  4  0  0  0  0  0  0
    8.0661   -6.6488    0.0000 O   0  0  0  0  0  2  0  0  0  0  0  0
    9.2184   -7.3171    0.0000 C   0  0  0  0  0  4  0  0  0  0  0  0
   10.3708   -6.6488    0.0000 C   0  0  0  0  0  4  0  0  0  0  0  0
   11.5231   -7.3171    0.0000 C   0  0  0  0  0  4  0  0  0  0  0  0
   11.5231   -8.6423    0.0000 C   0  0  0  0  0  4  0  0  0  0  0  0
   10.3708   -9.3106    0.0000 C   0  0  0  0  0  4  0  0  0  0  0  0
    9.2184   -8.6423    0.0000 C   0  0  0  0  0  4  0  0  0  0  0  0
    5.7615   -1.3252    0.0000 C   0  0  0  0  0  4  0  0  0  0  0  0
    5.7615    0.0000    0.0000 N   0  0  0  0  0  3  0  0  0  0  0  0
  1  2  2  0  0  0  0 
  2  3  1  0  0  0  0 
  2 14  1  0  0  0  0 
  3  4  1  0  0  0  0 
  3 11  1  0  0  0  0 
  4  5  2  0  0  0  0 
  4  9  1  0  0  0  0 
  5  6  1  0  0  0  0 
  6  7  2  0  0  0  0 
  7  8  1  0  0  0  0 
  7 10  1  0  0  0  0 
  8  9  2  0  0  0  0 
 11 12  1  0  0  0  0 
 11 13  1  0  0  0  0 
 14 15  1  0  0  0  0 
 15 16  1  0  0  0  0 
 15 29  1  0  0  0  0 
 16 17  2  0  0  0  0 
 16 21  1  0  0  0  0 
 17 18  1  0  0  0  0 
 18 19  2  0  0  0  0 
 19 20  1  0  0  0  0 
 20 21  2  0  0  0  0 
 20 22  1  0  0  0  0 
 22 23  1  0  0  0  0 
 23 24  2  0  0  0  0 
 23 28  1  0  0  0  0 
 24 25  1  0  0  0  0 
 25 26  2  0  0  0  0 
 26 27  1  0  0  0  0 
 27 28  2  0  0  0  0 
 29 30  3  0  0  0  0 
M  END
> <CDK Fingerprint>
C4AAAEAAAAEACgASggEAABAJAAACgBBEgAQAAIAAAAiIAArhEIAAhIYAAIAAgEBQKIZEIBAAACBAgAAgUAAAAYAOHCAIAACAjgASBEIABIAAAgBAIAAGQAGBEkAAIoCCIYBBAcAgJKITECECQBgMCciCHAiBUBAkABEUICAiYAA=

> <ActivityOutcome_CPDBAS_Rat>
inactive

$$$$

  CDK     0721101958

 22 24  0  0  0  0  0  0  0  0999 V2000
    4.0564    0.0000    0.0000 N   0  0  0  0  0  3  0  0  0  0  0  0
    2.9389   -0.6511    0.0000 C   0  0  0  0  0  4  0  0  0  0  0  0
    3.2029   -1.9182    0.0000 N   0  0  0  0  0  3  0  0  0  0  0  0
    4.4964   -2.0502    0.0000 N   0  0  0  0  0  3  0  0  0  0  0  0
    5.0244   -0.8711    0.0000 C   0  0  0  0  0  4  0  0  0  0  0  0
    5.3411   -3.5109    0.0000 C   0  0  0  0  0  4  0  0  0  0  0  0
    4.4964   -4.9716    0.0000 C   0  0  0  0  0  4  0  0  0  0  0  0
    5.6227   -5.6227    0.0000 C   0  0  0  0  0  4  0  0  0  0  0  0
    6.7490   -4.9716    0.0000 N   0  0  0  0  0  3  0  0  0  0  0  0
    6.8810   -3.6869    0.0000 N   0  0  0  0  0  3  0  0  0  0  0  0
    8.1481   -3.4141    0.0000 C   0  0  0  0  0  4  0  0  0  0  0  0
    8.7992   -4.5404    0.0000 N   0  0  0  0  0  3  0  0  0  0  0  0
    7.9281   -5.4995    0.0000 C   0  0  0  0  0  4  0  0  0  0  0  0
    3.3701   -4.3292    0.0000 C   0  0  0  0  0  4  0  0  0  0  0  0
    2.2526   -4.9716    0.0000 C   0  0  0  0  0  4  0  0  0  0  0  0
    1.1263   -4.3292    0.0000 C   0  0  0  0  0  4  0  0  0  0  0  0
    1.1263   -3.0269    0.0000 C   0  0  0  0  0  4  0  0  0  0  0  0
    2.2526   -2.3758    0.0000 C   0  0  0  0  0  4  0  0  0  0  0  0
    3.3701   -3.0269    0.0000 C   0  0  0  0  0  4  0  0  0  0  0  0
    0.0000   -2.3758    0.0000 F   0  0  0  0  0  1  0  0  0  0  0  0
    2.2526   -6.2738    0.0000 F   0  0  0  0  0  1  0  0  0  0  0  0
    3.8453   -6.0979    0.0000 O   0  0  0  0  0  2  0  0  0  0  0  0
  1  2  1  0  0  0  0 
  1  5  2  0  0  0  0 
  2  3  2  0  0  0  0 
  3  4  1  0  0  0  0 
  4  5  1  0  0  0  0 
  4  6  1  0  0  0  0 
  6  7  1  0  0  0  0 
  7  8  1  0  0  0  0 
  7 14  1  0  0  0  0 
  7 22  1  0  0  0  0 
  8  9  1  0  0  0  0 
  9 10  1  0  0  0  0 
  9 13  1  0  0  0  0 
 10 11  2  0  0  0  0 
 11 12  1  0  0  0  0 
 12 13  2  0  0  0  0 
 14 15  2  0  0  0  0 
 14 19  1  0  0  0  0 
 15 16  1  0  0  0  0 
 15 21  1  0  0  0  0 
 16 17  2  0  0  0  0 
 17 18  1  0  0  0  0 
 17 20  1  0  0  0  0 
 18 19  2  0  0  0  0 
M  END
> <CDK Fingerprint>
AY4giArAIgAAFgAhAJAAIAAAAAIAEACAUFCJiBAAqABA/BACAQBkwQAAAgBACCGAAIICAEAgQAAQAUAEAAAABKyEACAFAABAAgFEAGAAAEAYEiAQgIVggBGCAACAQCAIAABAYAQQFAACA3gABMgggBQAgACABAABEAAAAiwA

> <ActivityOutcome_CPDBAS_Rat>
active

> <TD50_Rat_mmol>
0.263

$$$$

  CDK     0721101958

 16 16  0  0  0  0  0  0  0  0999 V2000
    2.3025   -0.6631    0.0000 O   0  0  0  0  0  2  0  0  0  0  0  0
    2.3025   -1.9893    0.0000 C   0  0  0  0  0  4  0  0  0  0  0  0
    3.4537   -2.6617    0.0000 N   0  0  0  0  0  3  0  0  0  0  0  0
    4.6050   -1.9893    0.0000 C   0  0  0  0  0  4  0  0  0  0  0  0
    4.6050   -0.6631    0.0000 C   0  0  0  0  0  4  0  0  0  0  0  0
    5.7562    0.0000    0.0000 C   0  0  0  0  0  4  0  0  0  0  0  0
    6.9074   -0.6631    0.0000 C   0  0  0  0  0  4  0  0  0  0  0  0
    6.9074   -1.9893    0.0000 C   0  0  0  0  0  4  0  0  0  0  0  0
    5.7562   -2.6617    0.0000 C   0  0  0  0  0  4  0  0  0  0  0  0
    8.0587   -2.6617    0.0000 C   0  0  0  0  0  4  0  0  0  0  0  0
    7.3956   -3.8129    0.0000 F   0  0  0  0  0  1  0  0  0  0  0  0
    8.7218   -1.5104    0.0000 F   0  0  0  0  0  1  0  0  0  0  0  0
    9.2099   -3.3248    0.0000 F   0  0  0  0  0  1  0  0  0  0  0  0
    1.1512   -2.6617    0.0000 N   0  0  0  0  0  3  0  0  0  0  0  0
    1.1512   -3.9879    0.0000 C   0  0  0  0  0  4  0  0  0  0  0  0
    0.0000   -1.9893    0.0000 C   0  0  0  0  0  4  0  0  0  0  0  0
  1  2  2  0  0  0  0 
  2  3  1  0  0  0  0 
  2 14  1  0  0  0  0 
  3  4  1  0  0  0  0 
  4  5  2  0  0  0  0 
  4  9  1  0  0  0  0 
  5  6  1  0  0  0  0 
  6  7  2  0  0  0  0 
  7  8  1  0  0  0  0 
  8  9  2  0  0  0  0 
  8 10  1  0  0  0  0 
 10 11  1  0  0  0  0 
 10 12  1  0  0  0  0 
 10 13  1  0  0  0  0 
 14 15  1  0  0  0  0 
 14 16  1  0  0  0  0 
M  END
> <CDK Fingerprint>
AQAgIBAARAAAIAEAAAAAAAAAUAAAAQAABMACMABAYAEAiAggAAAABAAhACAABAAAAAIAQAAAAIAEAADABQBAAAABAAAAAAAMAAAAAAAIAAAQAAAAgAQAAACAACAIQABAJAAAAAAABkAAAAAAAUIAgEQCQAAAABQAAhAA

> <ActivityOutcome_CPDBAS_Rat>
inactive

$$$$

  CDK     0721101958

 20 22  0  0  0  0  0  0  0  0999 V2000
    0.1772    0.0000    0.0000 O   0  0  0  0  0  2  0  0  0  0  0  0
    1.3289   -0.6694    0.0000 C   0  0  0  0  0  4  0  0  0  0  0  0
    2.4807    0.0000    0.0000 N   0  0  0  0  0  3  0  0  0  0  0  0
    3.6324   -0.6694    0.0000 C   0  0  0  0  0  4  0  0  0  0  0  0
    3.6324   -1.9983    0.0000 C   0  0  0  0  0  4  0  0  0  0  0  0
    4.7842   -2.6579    0.0000 C   0  0  0  0  0  4  0  0  0  0  0  0
    5.9359   -1.9983    0.0000 C   0  0  0  0  0  4  0  0  0  0  0  0
    7.1959   -2.4118    0.0000 C   0  0  0  0  0  4  0  0  0  0  0  0
    7.9834   -1.3289    0.0000 C   0  0  0  0  0  4  0  0  0  0  0  0
    9.3025   -1.4667    0.0000 C   0  0  0  0  0  4  0  0  0  0  0  0
    9.8439   -2.6874    0.0000 C   0  0  0  0  0  4  0  0  0  0  0  0
    9.0663   -3.7604    0.0000 C   0  0  0  0  0  4  0  0  0  0  0  0
    7.7373   -3.6226    0.0000 C   0  0  0  0  0  4  0  0  0  0  0  0
    7.1959   -0.2559    0.0000 C   0  0  0  0  0  4  0  0  0  0  0  0
    5.9359   -0.6694    0.0000 C   0  0  0  0  0  4  0  0  0  0  0  0
    4.7842    0.0000    0.0000 C   0  0  0  0  0  4  0  0  0  0  0  0
    1.3289   -1.9983    0.0000 C   0  0  0  0  0  4  0  0  0  0  0  0
    2.6579   -1.9983    0.0000 F   0  0  0  0  0  1  0  0  0  0  0  0
    1.3289   -3.3272    0.0000 F   0  0  0  0  0  1  0  0  0  0  0  0
    0.0000   -1.9983    0.0000 F   0  0  0  0  0  1  0  0  0  0  0  0
  1  2  2  0  0  0  0 
  2  3  1  0  0  0  0 
  2 17  1  0  0  0  0 
  3  4  1  0  0  0  0 
  4  5  1  0  0  0  0 
  4 16  2  0  0  0  0 
  5  6  2  0  0  0  0 
  6  7  1  0  0  0  0 
  7  8  1  0  0  0  0 
  7 15  2  0  0  0  0 
  8  9  1  0  0  0  0 
  8 13  2  0  0  0  0 
  9 10  2  0  0  0  0 
  9 14  1  0  0  0  0 
 10 11  1  0  0  0  0 
 11 12  2  0  0  0  0 
 12 13  1  0  0  0  0 
 14 15  1  0  0  0  0 
 15 16  1  0  0  0  0 
 17 18  1  0  0  0  0 
 17 19  1  0  0  0  0 
 17 20  1  0  0  0  0 
M  END
> <CDK Fingerprint>
AIQAAAApICIFAAAEgSgBMAkAoAIQQEFBAAAAAgzAAzgAAGEgQRAAIIAAAAYAAoCgAAQAAgCGAEABAATBFAkAwAUIwACAAUAAAAAARIAg0AgAEADABIAAAIggAgAIgAAgQEkAQCAAQAAAQAJgAQ0BCAQUCoDQAsEQiAgEAAIQAA==

> <ActivityOutcome_CPDBAS_Rat>
active

> <TD50_Rat_mmol>
0.00584

$$$$

  CDK     0721101958

 17 18  0  0  0  0  0  0  0  0999 V2000
    0.0000   -1.1522    0.0000 C   0  0  0  0  0  4  0  0  0  0  0  0
    1.3329   -1.1522    0.0000 C   0  0  0  0  0  4  0  0  0  0  0  0
    1.9881   -2.3044    0.0000 N   0  0  0  0  0  3  0  0  0  0  0  0
    3.3210   -2.3044    0.0000 C   0  0  0  0  0  4  0  0  0  0  0  0
    3.9874   -1.1522    0.0000 C   0  0  0  0  0  4  0  0  0  0  0  0
    5.3203   -1.1522    0.0000 C   0  0  0  0  0  4  0  0  0  0  0  0
    5.9755   -2.3044    0.0000 C   0  0  0  0  0  4  0  0  0  0  0  0
    7.3084   -2.3044    0.0000 C   0  0  0  0  0  4  0  0  0  0  0  0
    7.9749   -1.1522    0.0000 C   0  0  0  0  0  4  0  0  0  0  0  0
    9.3078   -1.1522    0.0000 C   0  0  0  0  0  4  0  0  0  0  0  0
    9.9629   -2.3044    0.0000 C   0  0  0  0  0  4  0  0  0  0  0  0
   11.2959   -2.3044    0.0000 F   0  0  0  0  0  1  0  0  0  0  0  0
    9.3078   -3.4565    0.0000 C   0  0  0  0  0  4  0  0  0  0  0  0
    7.9749   -3.4565    0.0000 C   0  0  0  0  0  4  0  0  0  0  0  0
    5.3203   -3.4565    0.0000 C   0  0  0  0  0  4  0  0  0  0  0  0
    3.9874   -3.4565    0.0000 C   0  0  0  0  0  4  0  0  0  0  0  0
    1.9881    0.0000    0.0000 O   0  0  0  0  0  2  0  0  0  0  0  0
  1  2  1  0  0  0  0 
  2  3  1  0  0  0  0 
  2 17  2  0  0  0  0 
  3  4  1  0  0  0  0 
  4  5  2  0  0  0  0 
  4 16  1  0  0  0  0 
  5  6  1  0  0  0  0 
  6  7  2  0  0  0  0 
  7  8  1  0  0  0  0 
  7 15  1  0  0  0  0 
  8  9  2  0  0  0  0 
  8 14  1  0  0  0  0 
  9 10  1  0  0  0  0 
 10 11  2  0  0  0  0 
 11 12  1  0  0  0  0 
 11 13  1  0  0  0  0 
 13 14  2  0  0  0  0 
 15 16  2  0  0  0  0 
M  END
> <CDK Fingerprint>
ISAiBAAgAAAIAAAAAAAAEABBQQAAAAIEwAMgAABgEAABACAAAAAAAACAoIAEAAAABgBAAACAgAQIAMAEAAAAAAEAAAAAAASAINAAAAAAAAACAACAAAAAAIAAIABAAEAgAAAAAEACQAEAAAgAAAiA0ADAEIgIAAACEAA=

> <ActivityOutcome_CPDBAS_Rat>
active

> <TD50_Rat_mmol>
0.00441

$$$$

  CDK     0721101958

  9  8  0  0  0  0  0  0  0  0999 V2000
    1.1520    0.0000    0.0000 O   0  0  0  0  0  2  0  0  0  0  0  0
    2.3040   -0.6635    0.0000 C   0  0  0  0  0  4  0  0  0  0  0  0
    2.3040   -1.9953    0.0000 N   0  0  0  0  0  3  0  0  0  0  0  0
    3.4560   -2.6588    0.0000 C   0  0  0  0  0  4  0  0  0  0  0  0
    4.6080   -1.9953    0.0000 C   0  0  0  0  0  4  0  0  0  0  0  0
    4.6080   -0.6635    0.0000 F   0  0  0  0  0  1  0  0  0  0  0  0
    1.1520   -2.6588    0.0000 N   0  0  0  0  0  3  0  0  0  0  0  0
    0.0000   -1.9953    0.0000 O   0  0  0  0  0  2  0  0  0  0  0  0
    3.4560    0.0000    0.0000 N   0  0  0  0  0  3  0  0  0  0  0  0
  1  2  2  0  0  0  0 
  2  3  1  0  0  0  0 
  2  9  1  0  0  0  0 
  3  4  1  0  0  0  0 
  3  7  1  0  0  0  0 
  4  5  1  0  0  0  0 
  5  6  1  0  0  0  0 
  7  8  2  0  0  0  0 
M  END
> <CDK Fingerprint>
AhAASAABgAAAAAAAABAAAAAAAAAAAAAEJQAAYAAAAoAgAAAAAAABACAAQQACAAAAAAAAAIAQAAKAAAAAAAAAAAAAAAAAAACAAAAAAAAAAAAAAAAAAAAAAAAARCAAAAAIAAAAAAAAAAAAAAAAAEAAAAAAAAAAAwAA

> <ActivityOutcome_CPDBAS_Rat>
active

> <TD50_Rat_mmol>
0.000925

$$$$

  CDK     0721101958

  9  9  0  0  0  0  0  0  0  0999 V2000
    0.0000   -2.6589    0.0000 O   0  0  0  0  0  2  0  0  0  0  0  0
    1.1520   -1.9953    0.0000 C   0  0  0  0  0  4  0  0  0  0  0  0
    1.1520   -0.6636    0.0000 C   0  0  0  0  0  4  0  0  0  0  0  0
    2.3041    0.0000    0.0000 C   0  0  0  0  0  4  0  0  0  0  0  0
    3.4561   -0.6636    0.0000 N   0  0  0  0  0  3  0  0  0  0  0  0
    3.4561   -1.9953    0.0000 C   0  0  0  0  0  4  0  0  0  0  0  0
    4.6082   -2.6589    0.0000 O   0  0  0  0  0  2  0  0  0  0  0  0
    2.3041   -2.6589    0.0000 N   0  0  0  0  0  3  0  0  0  0  0  0
    0.0000    0.0000    0.0000 F   0  0  0  0  0  1  0  0  0  0  0  0
  1  2  2  0  0  0  0 
  2  3  1  0  0  0  0 
  2  8  1  0  0  0  0 
  3  4  2  0  0  0  0 
  3  9  1  0  0  0  0 
  4  5  1  0  0  0  0 
  5  6  1  0  0  0  0 
  6  7  2  0  0  0  0 
  6  8  1  0  0  0  0 
M  END
> <CDK Fingerprint>
QEAgAAAwAAACEABAAAEQAAAAAAAAAEAAAAAAAgAAAAAiAAhgAAAggCAAAAAAgAFAIABAAAIAEAgCAAIAgBAAAIAAAAABAAQBAAAAAAAAAIAAAAAAAIAACAAAAAAAEQAEAABAAAABAAAAAgAgAAAAAQAAQAAEdAAAAEAAGAACIAA=

> <ActivityOutcome_CPDBAS_Rat>
inactive

$$$$

  CDK     0721101958

 30 32  0  0  0  0  0  0  0  0999 V2000
    0.0000   -1.1558    0.0000 O   0  0  0  0  0  2  0  0  0  0  0  0
    1.3319   -1.1558    0.0000 C   0  0  0  0  0  4  0  0  0  0  0  0
    1.9924   -2.3006    0.0000 C   0  0  0  0  0  4  0  0  0  0  0  0
    3.3244   -2.3006    0.0000 C   0  0  0  0  0  4  0  0  0  0  0  0
    3.9848   -3.4565    0.0000 C   0  0  0  0  0  4  0  0  0  0  0  0
    5.3168   -3.4565    0.0000 C   0  0  0  0  0  4  0  0  0  0  0  0
    5.9883   -4.6013    0.0000 C   0  0  0  0  0  4  0  0  0  0  0  0
    5.3168   -5.7571    0.0000 C   0  0  0  0  0  4  0  0  0  0  0  0
    5.9883   -6.9129    0.0000 C   0  0  0  0  0  4  0  0  0  0  0  0
    5.4379   -8.1238    0.0000 C   0  0  0  0  0  4  0  0  0  0  0  0
    6.4286   -9.0154    0.0000 C   0  0  0  0  0  4  0  0  0  0  0  0
    7.5844   -8.3439    0.0000 C   0  0  0  0  0  4  0  0  0  0  0  0
    7.3092   -7.0450    0.0000 N   0  0  0  0  0  3  0  0  0  0  0  0
    8.2008   -6.0653    0.0000 C   0  0  0  0  0  4  0  0  0  0  0  0
    9.4998   -6.3405    0.0000 C   0  0  0  0  0  4  0  0  0  0  0  0
    7.7825   -4.7994    0.0000 C   0  0  0  0  0  4  0  0  0  0  0  0
    8.7292   -9.0154    0.0000 C   0  0  0  0  0  4  0  0  0  0  0  0
    8.7292  -10.3474    0.0000 C   0  0  0  0  0  4  0  0  0  0  0  0
    7.5844  -11.0078    0.0000 C   0  0  0  0  0  4  0  0  0  0  0  0
    6.4286  -10.3474    0.0000 C   0  0  0  0  0  4  0  0  0  0  0  0
    4.1390   -8.3990    0.0000 C   0  0  0  0  0  4  0  0  0  0  0  0
    3.7317   -9.6649    0.0000 C   0  0  0  0  0  4  0  0  0  0  0  0
    2.4327   -9.9401    0.0000 C   0  0  0  0  0  4  0  0  0  0  0  0
    1.5411   -8.9494    0.0000 C   0  0  0  0  0  4  0  0  0  0  0  0
    1.9484   -7.6835    0.0000 C   0  0  0  0  0  4  0  0  0  0  0  0
    3.2473   -7.4083    0.0000 C   0  0  0  0  0  4  0  0  0  0  0  0
    0.2422   -9.2246    0.0000 F   0  0  0  0  0  1  0  0  0  0  0  0
    5.9883   -2.3006    0.0000 O   0  0  0  0  0  2  0  0  0  0  0  0
    3.9848   -1.1558    0.0000 O   0  0  0  0  0  2  0  0  0  0  0  0
    1.9924    0.0000    0.0000 O   0  0  0  0  0  2  0  0  0  0  0  0
  1  2  2  0  0  0  0 
  2  3  1  0  0  0  0 
  2 30  1  0  0  0  0 
  3  4  1  0  0  0  0 
  4  5  1  0  0  0  0 
  4 29  1  6  0  0  0 
  5  6  1  0  0  0  0 
  6  7  1  0  0  0  0 
  6 28  1  6  0  0  0 
  7  8  2  0  0  0  0 
  8  9  1  0  0  0  0 
  9 10  2  0  0  0  0 
  9 13  1  0  0  0  0 
 10 11  1  0  0  0  0 
 10 21  1  0  0  0  0 
 11 12  2  0  0  0  0 
 11 20  1  0  0  0  0 
 12 13  1  0  0  0  0 
 12 17  1  0  0  0  0 
 13 14  1  0  0  0  0 
 14 15  1  0  0  0  0 
 14 16  1  0  0  0  0 
 17 18  2  0  0  0  0 
 18 19  1  0  0  0  0 
 19 20  2  0  0  0  0 
 21 22  2  0  0  0  0 
 21 26  1  0  0  0  0 
 22 23  1  0  0  0  0 
 23 24  2  0  0  0  0 
 24 25  1  0  0  0  0 
 24 27  1  0  0  0  0 
 25 26  2  0  0  0  0 
M  END
> <CDK Fingerprint>
QBADGZECwQKkhH4SQCIIgkAIAgAEAMBQQAEQAgoIRDsJGXAQQlkEoAgABJkkyphhgCsAGRAUAEEwEaJQ+CwQI4UCQoQQhBCBCSAgghAwQFWIMCCgAIoYgYgwAAgmiAIgWsCDxSBIgwQBcAJhFQiJwQYQLIDQOAIQCAhiBhKoZA==

> <ActivityOutcome_CPDBAS_Rat>
active

> <TD50_Rat_mmol>
0.304

$$$$

  CDK     0721101958

  2  1  0  0  0  0  0  0  0  0999 V2000
    0.0000    0.0000    0.0000 C   0  0  0  0  0  4  0  0  0  0  0  0
    1.3300    0.0000    0.0000 O   0  0  0  0  0  2  0  0  0  0  0  0
  1  2  2  0  0  0  0 
M  END
> <CDK Fingerprint>
YAAAAAAAAAAAAAAAAAAAAAAAAAAAAAAAAAAAAAAAAAAAAAAAAAAAAAAAAAAAAAAAAAAAAAAAAAAAAAAAAAAAQAAAAAAAAAAAAAAAAAAAAAAAAAAAAAAAAAAAAAAA

> <ActivityOutcome_CPDBAS_Rat>
active

> <TD50_Rat_mmol>
0.045

$$$$

  CDK     0721101958

 14 15  0  0  0  0  0  0  0  0999 V2000
    5.7930   -1.4482    0.0000 C   0  0  0  0  0  4  0  0  0  0  0  0
    7.1221   -1.4482    0.0000 C   0  0  0  0  0  4  0  0  0  0  0  0
    7.9012   -0.3666    0.0000 O   0  0  0  0  0  2  0  0  0  0  0  0
    9.1661   -0.7791    0.0000 C   0  0  0  0  0  4  0  0  0  0  0  0
    9.1661   -2.1082    0.0000 C   0  0  0  0  0  4  0  0  0  0  0  0
    7.9012   -2.5207    0.0000 C   0  0  0  0  0  4  0  0  0  0  0  0
    5.0047   -2.5207    0.0000 C   0  0  0  0  0  4  0  0  0  0  0  0
    3.7398   -2.1082    0.0000 S   0  0  0  0  0  2  0  0  0  0  0  0
    3.7398   -0.7791    0.0000 C   0  0  0  0  0  4  0  0  0  0  0  0
    5.0047   -0.3666    0.0000 N   0  0  0  0  0  3  0  0  0  0  0  0
    2.6673    0.0000    0.0000 N   0  0  0  0  0  3  0  0  0  0  0  0
    1.4482   -0.5408    0.0000 N   0  0  0  0  0  3  0  0  0  0  0  0
    1.2374   -1.8516    0.0000 C   0  0  0  0  0  4  0  0  0  0  0  0
    0.0000   -2.3282    0.0000 O   0  0  0  0  0  2  0  0  0  0  0  0
  1  2  1  0  0  0  0 
  1  7  2  0  0  0  0 
  1 10  1  0  0  0  0 
  2  3  1  0  0  0  0 
  2  6  2  0  0  0  0 
  3  4  1  0  0  0  0 
  4  5  2  0  0  0  0 
  5  6  1  0  0  0  0 
  7  8  1  0  0  0  0 
  8  9  1  0  0  0  0 
  9 10  2  0  0  0  0 
  9 11  1  0  0  0  0 
 11 12  1  0  0  0  0 
 12 13  1  0  0  0  0 
 13 14  2  0  0  0  0 
M  END
> <CDK Fingerprint>
CABGB4jAQyVAAJAABRCUAAGKoCCwgQAAAAGAAQQIQEKAAJFkgAAABEAYlQACAQAAoEBAAAAAAABCgogAAAIJAgFMAgJUBEAQA0ACkAAkAEBQNQIFgAMECMWgBKAAgIgAIAFAIhEgAADAoHCAQACaAgAAQEEAwQIAAAkMAgIDBIU=

> <ActivityOutcome_CPDBAS_Rat>
inactive

$$$$

  CDK     0721101958

 10 10  0  0  0  0  0  0  0  0999 V2000
    1.3215   -1.5417    0.0000 C   0  0  0  0  0  4  0  0  0  0  0  0
    0.0000   -1.6862    0.0000 C   0  0  0  0  0  4  0  0  0  0  0  0
    1.9891   -0.3923    0.0000 C   0  0  0  0  0  4  0  0  0  0  0  0
    3.2899   -0.6676    0.0000 S   0  0  0  0  0  2  0  0  0  0  0  0
    3.4275   -1.9891    0.0000 C   0  0  0  0  0  4  0  0  0  0  0  0
    2.2093   -2.5328    0.0000 N   0  0  0  0  0  3  0  0  0  0  0  0
    4.5769   -2.6567    0.0000 N   0  0  0  0  0  3  0  0  0  0  0  0
    5.7332   -1.9891    0.0000 N   0  0  0  0  0  3  0  0  0  0  0  0
    5.7332   -0.6607    0.0000 C   0  0  0  0  0  4  0  0  0  0  0  0
    6.8826    0.0000    0.0000 O   0  0  0  0  0  2  0  0  0  0  0  0
  1  2  1  0  0  0  0 
  1  3  2  0  0  0  0 
  1  6  1  0  0  0  0 
  3  4  1  0  0  0  0 
  4  5  1  0  0  0  0 
  5  6  2  0  0  0  0 
  5  7  1  0  0  0  0 
  7  8  1  0  0  0  0 
  8  9  1  0  0  0  0 
  9 10  2  0  0  0  0 
M  END
> <CDK Fingerprint>
QgIAgAIFQACAAAAAhAABiAAAMAEAAAAAAAAEAEBAAAABYAAAAABAAAEAAgAAACBAQAAAAAAAQoKIAAAACAIBCAIABARAAAEAAhAAAAAAQAAAAAADAABBAAAgAICIAAAAQCIBAAAAwAAwgAAAAAIAAABAAEEAAAABAAAAAwQA

> <ActivityOutcome_CPDBAS_Rat>
active

> <TD50_Rat_mmol>
0.0916

$$$$

  CDK     0721101958

 17 18  0  0  0  0  0  0  0  0999 V2000
   11.3714   -1.9900    0.0000 O   0  0  0  0  0  1  0  0  0  0  0  0
   10.2229   -1.3304    0.0000 N   0  0  0  0  0  4  0  0  0  0  0  0
   10.2229    0.0000    0.0000 O   0  0  0  0  0  2  0  0  0  0  0  0
    9.0743   -1.9900    0.0000 C   0  0  0  0  0  4  0  0  0  0  0  0
    8.9265   -3.3204    0.0000 C   0  0  0  0  0  4  0  0  0  0  0  0
    7.6302   -3.5933    0.0000 C   0  0  0  0  0  4  0  0  0  0  0  0
    6.9706   -2.4448    0.0000 C   0  0  0  0  0  4  0  0  0  0  0  0
    7.8576   -1.4555    0.0000 O   0  0  0  0  0  2  0  0  0  0  0  0
    5.6402   -2.3084    0.0000 C   0  0  0  0  0  4  0  0  0  0  0  0
    4.7532   -3.2863    0.0000 C   0  0  0  0  0  4  0  0  0  0  0  0
    3.5365   -2.7519    0.0000 S   0  0  0  0  0  2  0  0  0  0  0  0
    3.6729   -1.4328    0.0000 C   0  0  0  0  0  4  0  0  0  0  0  0
    4.9807   -1.1485    0.0000 N   0  0  0  0  0  3  0  0  0  0  0  0
    2.6950   -0.5345    0.0000 N   0  0  0  0  0  3  0  0  0  0  0  0
    1.4442   -1.0121    0.0000 N   0  0  0  0  0  3  0  0  0  0  0  0
    1.2395   -2.3311    0.0000 C   0  0  0  0  0  4  0  0  0  0  0  0
    0.0000   -2.8087    0.0000 O   0  0  0  0  0  2  0  0  0  0  0  0
  1  2  1  0  0  0  0 
  2  3  2  0  0  0  0 
  2  4  1  0  0  0  0 
  4  5  2  0  0  0  0 
  4  8  1  0  0  0  0 
  5  6  1  0  0  0  0 
  6  7  2  0  0  0  0 
  7  8  1  0  0  0  0 
  7  9  1  0  0  0  0 
  9 10  2  0  0  0  0 
  9 13  1  0  0  0  0 
 10 11  1  0  0  0  0 
 11 12  1  0  0  0  0 
 12 13  2  0  0  0  0 
 12 14  1  0  0  0  0 
 14 15  1  0  0  0  0 
 15 16  1  0  0  0  0 
 16 17  2  0  0  0  0 
M  CHG  1   1  -1
M  CHG  1   2   1
M  END
> <CDK Fingerprint>
CABGB/jCQydgAJAIBZCUAAHKoKKwkRDBEAGAQQQsQEaAAJFkgAYABEAYlQACYQAApEBBAAIABAZCgogAAAapAgFMAgJUBEASA1ACkEAsiEBQNQIFkAMECMWgBKAgiIgEYAFUIhUgpQD4oHKAQLCaAggAwEECwQIAAAkMggIDBIU=

> <ActivityOutcome_CPDBAS_Rat>
active

> <TD50_Rat_mmol>
0.0199

$$$$

  CDK     0721101958

  7  6  0  0  0  0  0  0  0  0999 V2000
    5.7637   -1.9942    0.0000 N   0  0  0  0  0  3  0  0  0  0  0  0
    4.6110   -1.3314    0.0000 C   0  0  0  0  0  4  0  0  0  0  0  0
    4.6110    0.0000    0.0000 S   0  0  0  0  0  2  0  0  0  0  0  0
    3.4582   -1.9942    0.0000 N   0  0  0  0  0  3  0  0  0  0  0  0
    2.3055   -1.3314    0.0000 N   0  0  0  0  0  3  0  0  0  0  0  0
    1.1527   -1.9942    0.0000 C   0  0  0  0  0  4  0  0  0  0  0  0
    0.0000   -1.3314    0.0000 O   0  0  0  0  0  2  0  0  0  0  0  0
  1  2  1  0  0  0  0 
  2  3  2  0  0  0  0 
  2  4  1  0  0  0  0 
  4  5  1  0  0  0  0 
  5  6  1  0  0  0  0 
  6  7  2  0  0  0  0 
M  END
> <CDK Fingerprint>
AIAAAAAAAAAAABAACBAAAAAAAAAAABAAAAAAAAAAAABAAAgBYAAAAAAAAAAAAAQAAAAAAAAAAAAAAAAAAAAAAAIAAAAAAAAAAAAAAAAAAAAAQAAAAAAAAAAAEAAAAAAAAAAAQCAAAAAAAAAAAAAAAAAAAAAAAEAAAAAAAQAAAwAA

> <ActivityOutcome_CPDBAS_Rat>
inactive

$$$$

  CDK     0721101958

 50 49  0  0  0  0  0  0  0  0999 V2000
    8.0884   -2.0100    0.0000 C   0  0  0  0  0  4  0  0  0  0  0  0
    9.2266   -2.6639    0.0000 C   0  0  0  0  0  4  0  0  0  0  0  0
    6.9260   -2.6639    0.0000 O   0  0  0  0  0  2  0  0  0  0  0  0
    8.0884   -0.6781    0.0000 C   0  0  0  0  0  4  0  0  0  0  0  0
    9.2266   -3.9958    0.0000 O   0  0  0  0  0  2  0  0  0  0  0  0
   10.3891   -2.0100    0.0000 C   0  0  0  0  0  4  0  0  0  0  0  0
    5.7636   -2.0100    0.0000 C   0  0  0  0  0  4  0  0  0  0  0  0
    9.2266    0.0000    0.0000 C   0  0  0  0  0  4  0  0  0  0  0  0
    6.9260    0.0000    0.0000 C   0  0  0  0  0  4  0  0  0  0  0  0
    8.0884   -4.6739    0.0000 C   0  0  0  0  0  4  0  0  0  0  0  0
   11.5515   -2.6639    0.0000 C   0  0  0  0  0  4  0  0  0  0  0  0
    4.6012   -2.6639    0.0000 C   0  0  0  0  0  4  0  0  0  0  0  0
    5.7636   -0.6781    0.0000 O   0  0  0  0  0  2  0  0  0  0  0  0
   10.3891   -0.6781    0.0000 C   0  0  0  0  0  4  0  0  0  0  0  0
    6.9260   -3.9958    0.0000 C   0  0  0  0  0  4  0  0  0  0  0  0
    8.0884   -6.0058    0.0000 O   0  0  0  0  0  2  0  0  0  0  0  0
   12.6897   -2.0100    0.0000 C   0  0  0  0  0  4  0  0  0  0  0  0
   11.5515   -3.9958    0.0000 C   0  0  0  0  0  4  0  0  0  0  0  0
    3.4630   -2.0100    0.0000 C   0  0  0  0  0  4  0  0  0  0  0  0
   11.5515    0.0000    0.0000 C   0  0  0  0  0  4  0  0  0  0  0  0
    5.7636   -4.6739    0.0000 C   0  0  0  0  0  4  0  0  0  0  0  0
   13.8279   -2.6639    0.0000 C   0  0  0  0  0  4  0  0  0  0  0  0
    2.3248   -2.6639    0.0000 C   0  0  0  0  0  4  0  0  0  0  0  0
    3.4630   -0.6781    0.0000 C   0  0  0  0  0  4  0  0  0  0  0  0
   12.6897   -0.6781    0.0000 C   0  0  0  0  0  4  0  0  0  0  0  0
    4.6012   -3.9958    0.0000 C   0  0  0  0  0  4  0  0  0  0  0  0
    5.7636   -6.0058    0.0000 C   0  0  0  0  0  4  0  0  0  0  0  0
   14.9903   -2.0100    0.0000 C   0  0  0  0  0  4  0  0  0  0  0  0
   13.8279   -3.9958    0.0000 O   0  0  0  0  0  2  0  0  0  0  0  0
    1.1624   -2.0100    0.0000 C   0  0  0  0  0  4  0  0  0  0  0  0
    4.6012    0.0000    0.0000 O   0  0  0  0  0  2  0  0  0  0  0  0
    2.3248    0.0000    0.0000 O   0  0  0  0  0  2  0  0  0  0  0  0
    3.4630   -4.6739    0.0000 C   0  0  0  0  0  4  0  0  0  0  0  0
    4.6012   -6.6597    0.0000 O   0  0  0  0  0  2  0  0  0  0  0  0
    6.9260   -6.6597    0.0000 O   0  0  0  0  0  2  0  0  0  0  0  0
   16.1527   -2.6639    0.0000 C   0  0  0  0  0  4  0  0  0  0  0  0
    1.1624   -0.6781    0.0000 O   0  0  0  0  0  2  0  0  0  0  0  0
    0.0000   -2.6639    0.0000 O   0  0  0  0  0  2  0  0  0  0  0  0
    2.3248   -3.9958    0.0000 O   0  0  0  0  0  2  0  0  0  0  0  0
    3.4630   -6.0058    0.0000 O   0  0  0  0  0  2  0  0  0  0  0  0
   17.3151   -2.0100    0.0000 C   0  0  0  0  0  4  0  0  0  0  0  0
   18.4533   -2.6639    0.0000 C   0  0  0  0  0  4  0  0  0  0  0  0
   19.6157   -2.0100    0.0000 C   0  0  0  0  0  4  0  0  0  0  0  0
   20.7539   -2.6639    0.0000 C   0  0  0  0  0  4  0  0  0  0  0  0
   19.6157   -0.6781    0.0000 O   0  0  0  0  0  2  0  0  0  0  0  0
   21.9163   -2.0100    0.0000 C   0  0  0  0  0  4  0  0  0  0  0  0
   23.0545   -2.6639    0.0000 C   0  0  0  0  0  4  0  0  0  0  0  0
   21.9163   -0.6781    0.0000 O   0  0  0  0  0  2  0  0  0  0  0  0
   24.2169   -2.0100    0.0000 C   0  0  0  0  0  4  0  0  0  0  0  0
   23.0545   -3.9958    0.0000 N   0  0  0  0  0  3  0  0  0  0  0  0
  1  2  1  0  0  0  0 
  1  3  1  6  0  0  0 
  1  4  1  0  0  0  0 
  2  5  1  1  0  0  0 
  2  6  1  0  0  0  0 
  3  7  1  0  0  0  0 
  4  8  1  0  0  0  0 
  4  9  1  1  0  0  0 
  5 10  1  0  0  0  0 
  6 11  1  0  0  0  0 
  7 12  1  0  0  0  0 
  7 13  2  0  0  0  0 
  8 14  1  0  0  0  0 
 10 15  1  0  0  0  0 
 10 16  2  0  0  0  0 
 11 17  1  0  0  0  0 
 11 18  1  1  0  0  0 
 12 19  1  0  0  0  0 
 14 20  1  0  0  0  0 
 15 21  1  0  0  0  0 
 17 22  1  0  0  0  0 
 19 23  1  0  0  0  0 
 19 24  1  6  0  0  0 
 20 25  1  0  0  0  0 
 21 26  1  0  0  0  0 
 21 27  1  1  0  0  0 
 22 28  1  0  0  0  0 
 22 29  1  6  0  0  0 
 23 30  1  0  0  0  0 
 24 31  1  0  0  0  0 
 24 32  2  0  0  0  0 
 26 33  1  0  0  0  0 
 27 34  1  0  0  0  0 
 27 35  2  0  0  0  0 
 28 36  1  0  0  0  0 
 30 37  1  0  0  0  0 
 30 38  2  0  0  0  0 
 33 39  1  0  0  0  0 
 33 40  2  0  0  0  0 
 36 41  1  0  0  0  0 
 41 42  1  0  0  0  0 
 42 43  1  0  0  0  0 
 43 44  1  0  0  0  0 
 43 45  1  1  0  0  0 
 44 46  1  0  0  0  0 
 46 47  1  0  0  0  0 
 46 48  1  6  0  0  0 
 47 49  1  0  0  0  0 
 47 50  1  6  0  0  0 
M  END
> <CDK Fingerprint>
IICEAAAAAAAKAAACBUEEAhA0AAAICAEAwIAADYAAAAAVAQBgQIACAAAgAAEhAABYIAIiAACAAABBAAAoQGAAAAAAAAAAAgHAAAQAAEAAEQAAAAAAACCAQAAhEAAAAEAgAABIAQQBQAAAIAgAABAAAQAAAAABWDCAAAAAAAICAAA=

> <ActivityOutcome_CPDBAS_Rat>
active

> <TD50_Rat_mmol>
0.00208

$$$$

  CDK     0721101958

 11 11  0  0  0  0  0  0  0  0999 V2000
    0.0000   -2.2640    0.0000 N   0  0  0  0  0  3  0  0  0  0  0  0
    1.1477   -1.5958    0.0000 C   0  0  0  0  0  4  0  0  0  0  0  0
    1.1477   -0.2673    0.0000 O   0  0  0  0  0  2  0  0  0  0  0  0
    2.3033   -2.2640    0.0000 N   0  0  0  0  0  3  0  0  0  0  0  0
    3.4511   -1.5958    0.0000 N   0  0  0  0  0  3  0  0  0  0  0  0
    4.6067   -2.2640    0.0000 C   0  0  0  0  0  4  0  0  0  0  0  0
    5.7544   -1.5958    0.0000 C   0  0  0  0  0  4  0  0  0  0  0  0
    5.8959   -0.2751    0.0000 C   0  0  0  0  0  4  0  0  0  0  0  0
    7.1930    0.0000    0.0000 C   0  0  0  0  0  4  0  0  0  0  0  0
    7.8612   -1.1556    0.0000 C   0  0  0  0  0  4  0  0  0  0  0  0
    6.9729   -2.1382    0.0000 O   0  0  0  0  0  2  0  0  0  0  0  0
  1  2  1  0  0  0  0 
  2  3  2  0  0  0  0 
  2  4  1  0  0  0  0 
  4  5  1  0  0  0  0 
  5  6  2  0  0  0  0 
  6  7  1  0  0  0  0 
  7  8  2  0  0  0  0 
  7 11  1  0  0  0  0 
  8  9  1  0  0  0  0 
  9 10  2  0  0  0  0 
 10 11  1  0  0  0  0 
M  END
> <CDK Fingerprint>
CBAAEABBIAMQEAgAAIAgAAIoIAAAAABAAAAQAAAgBEBAIGAAAAACABAAAAAAIAAggAAAAAAAAEoAAgAAAIASAAAQAABAAAAAAgAAAAQAAAAAA0AACgQAAIAAAAAAgAAgAEAgECQAAQAAAAhAACIAAAAIoADQAEAAAAACAAMgAA==

> <ActivityOutcome_CPDBAS_Rat>
inactive

$$$$

  CDK     0721101958

  5  5  0  0  0  0  0  0  0  0999 V2000
    1.7409    0.0000    0.0000 C   0  0  0  0  0  4  0  0  0  0  0  0
    2.1519   -1.2653    0.0000 C   0  0  0  0  0  4  0  0  0  0  0  0
    1.0760   -2.0465    0.0000 O   0  0  0  0  0  2  0  0  0  0  0  0
    0.0000   -1.2653    0.0000 C   0  0  0  0  0  4  0  0  0  0  0  0
    0.4110    0.0000    0.0000 C   0  0  0  0  0  4  0  0  0  0  0  0
  1  2  2  0  0  0  0 
  1  5  1  0  0  0  0 
  2  3  1  0  0  0  0 
  3  4  1  0  0  0  0 
  4  5  2  0  0  0  0 
M  END
> <CDK Fingerprint>
IAAAAAAAAIAAAAIgAAAAAAAAAAAAAAAAAAAAAGAAAAAAAAAAAAAAAAAAAAAAAAAAAEAAAAAAAAAAAAAAAAAAAAAAAAAAAAAAAAAAAgAAAAQAAAAAAAAAAAAgAEAAECAAAAAAAAAAAAAAAAAAAAAAAAAAAAAAAAAAAA==

> <ActivityOutcome_CPDBAS_Rat>
active

> <TD50_Rat_mmol>
0.00582

$$$$

  CDK     0721101958

  7  7  0  0  0  0  0  0  0  0999 V2000
    0.0000   -1.5998    0.0000 O   0  0  0  0  0  2  0  0  0  0  0  0
    1.1503   -2.2653    0.0000 C   0  0  0  0  0  4  0  0  0  0  0  0
    2.3050   -1.5998    0.0000 C   0  0  0  0  0  4  0  0  0  0  0  0
    2.4416   -0.2777    0.0000 C   0  0  0  0  0  4  0  0  0  0  0  0
    3.7417    0.0000    0.0000 C   0  0  0  0  0  4  0  0  0  0  0  0
    4.4072   -1.1547    0.0000 C   0  0  0  0  0  4  0  0  0  0  0  0
    3.5169   -2.1419    0.0000 O   0  0  0  0  0  2  0  0  0  0  0  0
  1  2  2  0  0  0  0 
  2  3  1  0  0  0  0 
  3  4  2  0  0  0  0 
  3  7  1  0  0  0  0 
  4  5  1  0  0  0  0 
  5  6  2  0  0  0  0 
  6  7  1  0  0  0  0 
M  END
> <CDK Fingerprint>
ASAACRAAAACAAAACIAAAAAAAAAAAAAAAAAAAAABoAAAABAAQAABAAAAAIAAAAAAAAABAAAAAAAAAAAAAAAAAAAAAAAAAAAAEAAAAIAIAAAAEAACAAAAAAIAAIABAABAgAAAAAAAAQAAAAAAAAAAAkABEAAAAAAAAAAA=

> <ActivityOutcome_CPDBAS_Rat>
active

> <TD50_Rat_mmol>
7.11

$$$$

  CDK     0721101958

  7  7  0  0  0  0  0  0  0  0999 V2000
    3.5169   -2.1419    0.0000 C   0  0  0  0  0  4  0  0  0  0  0  0
    2.3050   -1.5998    0.0000 C   0  0  0  0  0  4  0  0  0  0  0  0
    1.1503   -2.2653    0.0000 C   0  0  0  0  0  4  0  0  0  0  0  0
    0.0000   -1.5998    0.0000 O   0  0  0  0  0  2  0  0  0  0  0  0
    2.4416   -0.2777    0.0000 O   0  0  0  0  0  2  0  0  0  0  0  0
    3.7417    0.0000    0.0000 C   0  0  0  0  0  4  0  0  0  0  0  0
    4.4072   -1.1547    0.0000 C   0  0  0  0  0  4  0  0  0  0  0  0
  1  2  2  0  0  0  0 
  1  7  1  0  0  0  0 
  2  3  1  0  0  0  0 
  2  5  1  0  0  0  0 
  3  4  1  0  0  0  0 
  5  6  1  0  0  0  0 
  6  7  2  0  0  0  0 
M  END
> <CDK Fingerprint>
ASAAABACAACAAAACIgAAAAACBAAAAAAAAAAAAEBgAAAAAAAQAAAAAAAAIAAAAAAAACBAAAAAAAAAAAAAAAAAAAAAAAAAAgAEAAAAAAIAAAAEAACAEAAAAIAAIABAABAgBAAAAAAAQAAAAACAAAAAgAAAAAAAAAAAAAA=

> <ActivityOutcome_CPDBAS_Rat>
active

> <TD50_Rat_mmol>
0.0979

$$$$

  CDK     0721101958

 21 22  0  0  0  0  0  0  0  0999 V2000
    3.4551   -6.0438    0.0000 C   0  0  0  0  0  4  0  0  0  0  0  0
    2.2999   -5.3699    0.0000 C   0  0  0  0  0  4  0  0  0  0  0  0
    1.1553   -6.0438    0.0000 C   0  0  0  0  0  4  0  0  0  0  0  0
    1.1553   -7.3703    0.0000 C   0  0  0  0  0  4  0  0  0  0  0  0
    2.2999   -8.0335    0.0000 C   0  0  0  0  0  4  0  0  0  0  0  0
    3.4551   -7.3703    0.0000 C   0  0  0  0  0  4  0  0  0  0  0  0
    2.2999   -9.3706    0.0000 S   0  0  0  0  0  6  0  0  0  0  0  0
    2.2999  -10.6971    0.0000 N   0  0  0  0  0  3  0  0  0  0  0  0
    0.9734   -9.3706    0.0000 O   0  0  0  0  0  2  0  0  0  0  0  0
    3.6370   -9.3706    0.0000 O   0  0  0  0  0  2  0  0  0  0  0  0
    0.0000   -8.0335    0.0000 Cl  0  0  0  0  0  1  0  0  0  0  0  0
    2.2999   -4.0435    0.0000 N   0  0  0  0  0  3  0  0  0  0  0  0
    1.1553   -3.3803    0.0000 C   0  0  0  0  0  4  0  0  0  0  0  0
    1.1553   -2.0431    0.0000 C   0  0  0  0  0  4  0  0  0  0  0  0
    2.2250   -1.2623    0.0000 C   0  0  0  0  0  4  0  0  0  0  0  0
    1.8185    0.0000    0.0000 C   0  0  0  0  0  4  0  0  0  0  0  0
    0.4921    0.0000    0.0000 C   0  0  0  0  0  4  0  0  0  0  0  0
    0.0749   -1.2623    0.0000 O   0  0  0  0  0  2  0  0  0  0  0  0
    4.6104   -5.3699    0.0000 C   0  0  0  0  0  4  0  0  0  0  0  0
    5.7657   -6.0438    0.0000 O   0  0  0  0  0  2  0  0  0  0  0  0
    4.6104   -4.0435    0.0000 O   0  0  0  0  0  2  0  0  0  0  0  0
  1  2  1  0  0  0  0 
  1  6  2  0  0  0  0 
  1 19  1  0  0  0  0 
  2  3  2  0  0  0  0 
  2 12  1  0  0  0  0 
  3  4  1  0  0  0  0 
  4  5  2  0  0  0  0 
  4 11  1  0  0  0  0 
  5  6  1  0  0  0  0 
  5  7  1  0  0  0  0 
  7  8  1  0  0  0  0 
  7  9  2  0  0  0  0 
  7 10  2  0  0  0  0 
 12 13  1  0  0  0  0 
 13 14  1  0  0  0  0 
 14 15  2  0  0  0  0 
 14 18  1  0  0  0  0 
 15 16  1  0  0  0  0 
 16 17  2  0  0  0  0 
 17 18  1  0  0  0  0 
 19 20  1  0  0  0  0 
 19 21  2  0  0  0  0 
M  END
> <CDK Fingerprint>
DAiAwAgIgSAiALBiAAC4AAAjIgAAQBBIBQAgAQAEUiZACBnoAQAADgAYQIAAAACCYABEBEASAiBCaAAAgESAJUAEQAAAABkAEEAICTSFApAIiAIChEgEAFOBVA4AAIkDcABAANIgBACFAAECQBAyCACEAoGA8ChgIYEEAACCkTA=

> <ActivityOutcome_CPDBAS_Rat>
inactive

$$$$

  CDK     0721101958

 25 28  0  0  0  0  0  0  0  0999 V2000
    5.7595   -3.7510    0.0000 C   0  0  0  0  0  4  0  0  0  0  0  0
    5.2770   -2.5204    0.0000 C   0  0  0  0  0  4  0  0  0  0  0  0
    5.9367   -1.3783    0.0000 C   0  0  0  0  0  4  0  0  0  0  0  0
    5.2770   -0.2363    0.0000 C   0  0  0  0  0  4  0  0  0  0  0  0
    3.9578   -0.2363    0.0000 O   0  0  0  0  0  2  0  0  0  0  0  0
    3.2982   -1.3783    0.0000 C   0  0  0  0  0  4  0  0  0  0  0  0
    3.9578   -2.5204    0.0000 C   0  0  0  0  0  4  0  0  0  0  0  0
    3.2982   -3.6624    0.0000 C   0  0  0  0  0  4  0  0  0  0  0  0
    1.9789   -3.6624    0.0000 C   0  0  0  0  0  4  0  0  0  0  0  0
    1.3193   -4.8045    0.0000 O   0  0  0  0  0  2  0  0  0  0  0  0
    1.3193   -2.5204    0.0000 C   0  0  0  0  0  4  0  0  0  0  0  0
    1.9789   -1.3783    0.0000 C   0  0  0  0  0  4  0  0  0  0  0  0
    0.0000   -2.5204    0.0000 C   0  0  0  0  0  4  0  0  0  0  0  0
    3.9578   -4.8045    0.0000 O   0  0  0  0  0  2  0  0  0  0  0  0
    4.5485   -4.1350    0.0000 C   0  0  0  0  0  4  0  0  0  0  0  0
    5.7890   -4.5780    0.0000 O   0  0  0  0  0  2  0  0  0  0  0  0
    6.4683   -0.7285    0.0000 C   0  0  0  0  0  4  0  0  0  0  0  0
    6.4683   -2.0183    0.0000 C   0  0  0  0  0  4  0  0  0  0  0  0
    7.5611   -2.7468    0.0000 O   0  0  0  0  0  2  0  0  0  0  0  0
    8.7426   -2.1660    0.0000 C   0  0  0  0  0  4  0  0  0  0  0  0
    8.8312   -0.8467    0.0000 O   0  0  0  0  0  2  0  0  0  0  0  0
    9.8452   -2.8945    0.0000 C   0  0  0  0  0  4  0  0  0  0  0  0
    7.5611    0.0000    0.0000 O   0  0  0  0  0  2  0  0  0  0  0  0
    7.0787   -0.7187    0.0000 C   0  0  0  0  0  4  0  0  0  0  0  0
    7.0787   -2.0380    0.0000 O   0  0  0  0  0  2  0  0  0  0  0  0
  2  1  1  1  0  0  0 
  2  3  1  0  0  0  0 
  2  7  1  0  0  0  0 
  2 18  1  0  0  0  0 
  3  4  1  0  0  0  0 
  3 24  1  0  0  0  0 
  3 25  1  6  0  0  0 
  4  5  1  0  0  0  0 
  4 17  1  0  0  0  0 
  5  6  1  0  0  0  0 
  6  7  1  0  0  0  0 
  6 12  1  0  0  0  0 
  7  8  1  0  0  0  0 
  7 15  1  1  0  0  0 
  8  9  1  0  0  0  0 
  8 14  1  0  0  0  0 
  9 10  2  0  0  0  0 
  9 11  1  0  0  0  0 
 11 12  2  0  0  0  0 
 11 13  1  0  0  0  0 
 15 16  1  0  0  0  0 
 17 18  1  0  0  0  0 
 17 23  1  6  0  0  0 
 18 19  1  1  0  0  0 
 19 20  1  0  0  0  0 
 20 21  2  0  0  0  0 
 20 22  1  0  0  0  0 
 24 25  1  0  0  0  0 
M  END
> <CDK Fingerprint>
INCEAQABAAgoKYECdUEEABA0BAKIBGEA4JIADcMBAAAVUQjgRIgAAAAgAAEhEABYJAIiAESYEBBAABAoQGQEAAAAACEEYhWAAAQUQFYkEXgAAAABACEEUALhMAACAEIAAABIJQQAQAAggABAABAkAa0AAAQA+LiAAAiCQdaAgCg=

> <ActivityOutcome_CPDBAS_Rat>
inactive

$$$$

  CDK     0721101958

 12 12  0  0  0  0  0  0  0  0999 V2000
    5.9827   -3.4580    0.0000 O   0  0  0  0  0  2  0  0  0  0  0  0
    5.3186   -2.3033    0.0000 C   0  0  0  0  0  4  0  0  0  0  0  0
    5.9827   -1.1547    0.0000 O   0  0  0  0  0  2  0  0  0  0  0  0
    3.9905   -2.3033    0.0000 C   0  0  0  0  0  4  0  0  0  0  0  0
    3.3264   -3.4580    0.0000 C   0  0  0  0  0  4  0  0  0  0  0  0
    1.9922   -3.4580    0.0000 C   0  0  0  0  0  4  0  0  0  0  0  0
    1.3282   -2.3033    0.0000 C   0  0  0  0  0  4  0  0  0  0  0  0
    1.9922   -1.1547    0.0000 C   0  0  0  0  0  4  0  0  0  0  0  0
    3.3264   -1.1547    0.0000 C   0  0  0  0  0  4  0  0  0  0  0  0
    1.3282    0.0000    0.0000 O   0  0  0  0  0  2  0  0  0  0  0  0
    0.0000   -2.3033    0.0000 O   0  0  0  0  0  2  0  0  0  0  0  0
    1.3282   -4.6067    0.0000 O   0  0  0  0  0  2  0  0  0  0  0  0
  1  2  1  0  0  0  0 
  2  3  2  0  0  0  0 
  2  4  1  0  0  0  0 
  4  5  2  0  0  0  0 
  4  9  1  0  0  0  0 
  5  6  1  0  0  0  0 
  6  7  2  0  0  0  0 
  6 12  1  0  0  0  0 
  7  8  1  0  0  0  0 
  7 11  1  0  0  0  0 
  8  9  2  0  0  0  0 
  8 10  1  0  0  0  0 
M  END
> <CDK Fingerprint>
AIACAAAAAAAAAAAAAAAAAAAAAAAARACAAAJpAAAChIgAAAAAAAAAIAQAIAAAACBAAAAAAAAAAAAEAAAAAAACAAAAAAAAAIAAEAAAAAAAAACAEAAAAIAAIABIAEAgJAABAAACQAAACACAAACAUAhAAAEAAAAAAAA=

> <ActivityOutcome_CPDBAS_Rat>
inactive

$$$$

  CDK     0721101958

 16 15  0  0  0  0  0  0  0  0999 V2000
    2.6646    0.0000    0.0000 C   0  0  0  0  0  4  0  0  0  0  0  0
    2.0015   -1.1454    0.0000 C   0  0  0  0  0  4  0  0  0  0  0  0
    0.8440   -0.4823    0.0000 C   0  0  0  0  0  4  0  0  0  0  0  0
    1.3263   -2.3029    0.0000 C   0  0  0  0  0  4  0  0  0  0  0  0
    0.0000   -2.3029    0.0000 O   0  0  0  0  0  2  0  0  0  0  0  0
    3.1469   -1.8086    0.0000 C   0  0  0  0  0  4  0  0  0  0  0  0
    4.3044   -1.1454    0.0000 C   0  0  0  0  0  4  0  0  0  0  0  0
    5.4499   -1.8086    0.0000 C   0  0  0  0  0  4  0  0  0  0  0  0
    6.6073   -1.1454    0.0000 C   0  0  0  0  0  4  0  0  0  0  0  0
    7.7528   -1.8086    0.0000 C   0  0  0  0  0  4  0  0  0  0  0  0
    8.9103   -1.1454    0.0000 C   0  0  0  0  0  4  0  0  0  0  0  0
   10.0557   -1.8086    0.0000 C   0  0  0  0  0  4  0  0  0  0  0  0
   11.2132   -2.4838    0.0000 C   0  0  0  0  0  4  0  0  0  0  0  0
    9.3926   -2.9661    0.0000 C   0  0  0  0  0  4  0  0  0  0  0  0
   10.7309   -0.6631    0.0000 C   0  0  0  0  0  4  0  0  0  0  0  0
   12.0572   -0.6631    0.0000 O   0  0  0  0  0  2  0  0  0  0  0  0
  1  2  1  0  0  0  0 
  2  3  1  0  0  0  0 
  2  4  1  0  0  0  0 
  2  6  1  0  0  0  0 
  4  5  1  0  0  0  0 
  6  7  1  0  0  0  0 
  7  8  1  0  0  0  0 
  8  9  1  0  0  0  0 
  9 10  1  0  0  0  0 
 10 11  1  0  0  0  0 
 11 12  1  0  0  0  0 
 12 13  1  0  0  0  0 
 12 14  1  0  0  0  0 
 12 15  1  0  0  0  0 
 15 16  1  0  0  0  0 
M  END
> <CDK Fingerprint>
AgEABAAAAAAAAAAAAEAAAAAAAAAAAAEAYAAAAAAAAAAAIAAAECAAIAAAAAAAAAAAAEBAAAAAAAAAAAAAAAAAAAAAAAEAAAAAAAAAAAAAABAAAAAAAAAAAAAAAEAAAAAAAAAQAAAAAAAAAAAQAAAAAAAAAAAA

> <ActivityOutcome_CPDBAS_Rat>
inactive

$$$$

  CDK     0721101958

 18 18  0  0  0  0  0  0  0  0999 V2000
    4.6120   -1.6414    0.0000 C   0  0  0  0  0  4  0  0  0  0  0  0
    3.4641   -2.3060    0.0000 C   0  0  0  0  0  4  0  0  0  0  0  0
    3.4641   -3.6352    0.0000 C   0  0  0  0  0  4  0  0  0  0  0  0
    2.3060   -4.2999    0.0000 C   0  0  0  0  0  4  0  0  0  0  0  0
    1.1580   -3.6352    0.0000 C   0  0  0  0  0  4  0  0  0  0  0  0
    1.1580   -2.3060    0.0000 C   0  0  0  0  0  4  0  0  0  0  0  0
    2.3060   -1.6414    0.0000 C   0  0  0  0  0  4  0  0  0  0  0  0
    0.0000   -4.2999    0.0000 C   0  0  0  0  0  4  0  0  0  0  0  0
    4.6120   -4.2999    0.0000 O   0  0  0  0  0  2  0  0  0  0  0  0
    5.7701   -3.6352    0.0000 C   0  0  0  0  0  4  0  0  0  0  0  0
    5.7701   -2.3060    0.0000 C   0  0  0  0  0  4  0  0  0  0  0  0
    6.9180   -1.6414    0.0000 C   0  0  0  0  0  4  0  0  0  0  0  0
    8.0761   -2.3060    0.0000 C   0  0  0  0  0  4  0  0  0  0  0  0
    8.7407   -1.1480    0.0000 C   0  0  0  0  0  4  0  0  0  0  0  0
    8.0761    0.0000    0.0000 O   0  0  0  0  0  2  0  0  0  0  0  0
   10.0699   -1.1480    0.0000 O   0  0  0  0  0  2  0  0  0  0  0  0
    9.2240   -2.9706    0.0000 C   0  0  0  0  0  4  0  0  0  0  0  0
    7.4115   -3.4540    0.0000 C   0  0  0  0  0  4  0  0  0  0  0  0
  1  2  1  0  0  0  0 
  2  3  2  0  0  0  0 
  2  7  1  0  0  0  0 
  3  4  1  0  0  0  0 
  3  9  1  0  0  0  0 
  4  5  2  0  0  0  0 
  5  6  1  0  0  0  0 
  5  8  1  0  0  0  0 
  6  7  2  0  0  0  0 
  9 10  1  0  0  0  0 
 10 11  1  0  0  0  0 
 11 12  1  0  0  0  0 
 12 13  1  0  0  0  0 
 13 14  1  0  0  0  0 
 13 17  1  0  0  0  0 
 13 18  1  0  0  0  0 
 14 15  2  0  0  0  0 
 14 16  1  0  0  0  0 
M  END
> <CDK Fingerprint>
CAACABAABAAAQAAAAAAAgAAEAAAAAAFBCQJhAAAAgIAAAAgBAAAQIAIgKACAAABAEARoQCAAAgAWEAAAAAABAARiBGAAAIABAQBAAAAAQACgEAAAQIAAKABAAEAgICAAAAACQBAAAQAAAACAUBAAAAEAAAIgAAA=

> <ActivityOutcome_CPDBAS_Rat>
active

> <TD50_Rat_mmol>
0.987

$$$$

  CDK     0721101958

 15 17  0  0  0  0  0  0  0  0999 V2000
    4.7238   -0.2510    0.0000 N   0  0  0  0  0  3  0  0  0  0  0  0
    3.4535   -0.6618    0.0000 C   0  0  0  0  0  4  0  0  0  0  0  0
    3.4535   -1.9930    0.0000 C   0  0  0  0  0  4  0  0  0  0  0  0
    4.7238   -2.4037    0.0000 N   0  0  0  0  0  3  0  0  0  0  0  0
    5.4997   -1.3312    0.0000 C   0  0  0  0  0  4  0  0  0  0  0  0
    6.8232   -1.4681    0.0000 C   0  0  0  0  0  4  0  0  0  0  0  0
    7.3633   -2.6852    0.0000 C   0  0  0  0  0  4  0  0  0  0  0  0
    6.5874   -3.7577    0.0000 C   0  0  0  0  0  4  0  0  0  0  0  0
    5.2639   -3.6208    0.0000 C   0  0  0  0  0  4  0  0  0  0  0  0
    7.6067   -0.3879    0.0000 C   0  0  0  0  0  4  0  0  0  0  0  0
    2.3048   -2.6547    0.0000 N   0  0  0  0  0  3  0  0  0  0  0  0
    1.1486   -1.9930    0.0000 C   0  0  0  0  0  4  0  0  0  0  0  0
    1.1486   -0.6618    0.0000 C   0  0  0  0  0  4  0  0  0  0  0  0
    2.3048    0.0000    0.0000 C   0  0  0  0  0  4  0  0  0  0  0  0
    0.0000   -2.6547    0.0000 N   0  0  0  0  0  3  0  0  0  0  0  0
  1  2  1  0  0  0  0 
  1  5  2  0  0  0  0 
  2  3  2  0  0  0  0 
  2 14  1  0  0  0  0 
  3  4  1  0  0  0  0 
  3 11  1  0  0  0  0 
  4  5  1  0  0  0  0 
  4  9  1  0  0  0  0 
  5  6  1  0  0  0  0 
  6  7  2  0  0  0  0 
  6 10  1  0  0  0  0 
  7  8  1  0  0  0  0 
  8  9  2  0  0  0  0 
 11 12  2  0  0  0  0 
 12 13  1  0  0  0  0 
 12 15  1  0  0  0  0 
 13 14  2  0  0  0  0 
M  END
> <CDK Fingerprint>
QAACAZEjBiBIkiwCBgUAAABAQCGEAEAQAAIQAQQIAgAIAOQAAAAsAIAAAgAAIAggAAgAKAAEAEIgAAACAAQCgQAAADABICAAaUEMhEAAAgSEAAGAAQAQIKAgCiACwACgYIARACCAkUEEgARTAAEAAAQAEIIIQAAAAAAAAAKgQg==

> <ActivityOutcome_CPDBAS_Rat>
active

> <TD50_Rat_mmol>
0.0237

$$$$

  CDK     0721101958

 14 16  0  0  0  0  0  0  0  0999 V2000
    2.6438   -2.4008    0.0000 N   0  0  0  0  0  3  0  0  0  0  0  0
    3.9104   -1.9884    0.0000 C   0  0  0  0  0  4  0  0  0  0  0  0
    3.9104   -0.6628    0.0000 C   0  0  0  0  0  4  0  0  0  0  0  0
    5.0593    0.0000    0.0000 C   0  0  0  0  0  4  0  0  0  0  0  0
    6.2154   -0.6628    0.0000 C   0  0  0  0  0  4  0  0  0  0  0  0
    6.2154   -1.9884    0.0000 C   0  0  0  0  0  4  0  0  0  0  0  0
    5.0593   -2.6585    0.0000 N   0  0  0  0  0  3  0  0  0  0  0  0
    7.3643   -2.6585    0.0000 N   0  0  0  0  0  3  0  0  0  0  0  0
    2.6438   -0.2504    0.0000 N   0  0  0  0  0  3  0  0  0  0  0  0
    1.8632   -1.3256    0.0000 C   0  0  0  0  0  4  0  0  0  0  0  0
    0.5376   -1.4655    0.0000 C   0  0  0  0  0  4  0  0  0  0  0  0
    0.0000   -2.6806    0.0000 C   0  0  0  0  0  4  0  0  0  0  0  0
    0.7806   -3.7558    0.0000 C   0  0  0  0  0  4  0  0  0  0  0  0
    2.1062   -3.6159    0.0000 C   0  0  0  0  0  4  0  0  0  0  0  0
  1  2  1  0  0  0  0 
  1 10  1  0  0  0  0 
  1 14  1  0  0  0  0 
  2  3  2  0  0  0  0 
  2  7  1  0  0  0  0 
  3  4  1  0  0  0  0 
  3  9  1  0  0  0  0 
  4  5  2  0  0  0  0 
  5  6  1  0  0  0  0 
  6  7  2  0  0  0  0 
  6  8  1  0  0  0  0 
  9 10  2  0  0  0  0 
 10 11  1  0  0  0  0 
 11 12  2  0  0  0  0 
 12 13  1  0  0  0  0 
 13 14  2  0  0  0  0 
M  END
> <CDK Fingerprint>
QAACAZEjBCBIEiwCBgQAAAAAQCCEAEAQAAIAAQQIAgAIAOQAAAAsAIAAAgAAIAggAAAAKAAEAEIgAAACAAQAgQAAABABICAAYAEMAEAAAASEAAGAAQAQICAgAgACQACgYAARACCAkUEEgAQTAAEAAAQAEIIIQAAAAAAAAAKAQg==

> <ActivityOutcome_CPDBAS_Rat>
active

> <TD50_Rat_mmol>
0.23

$$$$

  CDK     0721101958

  7  6  0  0  0  0  0  0  0  0999 V2000
    0.0000   -0.6638    0.0000 O   0  0  0  0  0  2  0  0  0  0  0  0
    1.1548    0.0000    0.0000 C   0  0  0  0  0  4  0  0  0  0  0  0
    2.3027   -0.6638    0.0000 C   0  0  0  0  0  4  0  0  0  0  0  0
    3.4575    0.0000    0.0000 C   0  0  0  0  0  4  0  0  0  0  0  0
    4.6122   -0.6638    0.0000 C   0  0  0  0  0  4  0  0  0  0  0  0
    5.7601    0.0000    0.0000 C   0  0  0  0  0  4  0  0  0  0  0  0
    6.9149   -0.6638    0.0000 O   0  0  0  0  0  2  0  0  0  0  0  0
  1  2  2  0  0  0  0 
  2  3  1  0  0  0  0 
  3  4  1  0  0  0  0 
  4  5  1  0  0  0  0 
  5  6  1  0  0  0  0 
  6  7  2  0  0  0  0 
M  END
> <CDK Fingerprint>
AQEAYAAAAAAAAAAAAAAAACAAAAAAAAAAAAAAIEAAAAAAAAAAAAAAAAAAAAAAAAAAAAAAAAAAgAAAAAAAAAAAAAAAQAAAAAAAAAAAAAAQAAEAAAAAABAAAAAAAAAAAAAA

> <ActivityOutcome_CPDBAS_Rat>
inactive

$$$$

  CDK     0721101958

  6  5  0  0  0  0  0  0  0  0999 V2000
    2.6616    0.0000    0.0000 O   0  0  0  0  0  2  0  0  0  0  0  0
    1.9952   -1.1492    0.0000 C   0  0  0  0  0  4  0  0  0  0  0  0
    2.6616   -2.3025    0.0000 C   0  0  0  0  0  4  0  0  0  0  0  0
    3.9905   -2.3025    0.0000 O   0  0  0  0  0  2  0  0  0  0  0  0
    0.6664   -1.1492    0.0000 C   0  0  0  0  0  4  0  0  0  0  0  0
    0.0000   -2.3025    0.0000 Cl  0  0  0  0  0  1  0  0  0  0  0  0
  1  2  1  0  0  0  0 
  2  3  1  0  0  0  0 
  2  5  1  0  0  0  0 
  3  4  1  0  0  0  0 
  5  6  1  0  0  0  0 
M  END
> <CDK Fingerprint>
AgAAAAAAAAAAAAAAAAAAAAAAAAAAAAAA4AAAAAAAAAAAAAAAGCAAAAACAAAAAAAAAEAAAAEAAAAIAACAACAAAAAAAAAAAAAAAAAAAAAAABAAAAAAAAAAAAAAAAAAAAAAAAAAAAAAAAAAAAAAAAAAAAAAAAAA

> <ActivityOutcome_CPDBAS_Rat>
inactive

$$$$

  CDK     0721101958

  5  5  0  0  0  0  0  0  0  0999 V2000
    0.0000   -1.1519    0.0000 O   0  0  0  0  0  2  0  0  0  0  0  0
    1.1519   -1.8168    0.0000 C   0  0  0  0  0  4  0  0  0  0  0  0
    2.3037   -1.1519    0.0000 C   0  0  0  0  0  4  0  0  0  0  0  0
    2.9687    0.0000    0.0000 C   0  0  0  0  0  4  0  0  0  0  0  0
    3.6336   -1.1519    0.0000 O   0  0  0  0  0  2  0  0  0  0  0  0
  1  2  2  0  0  0  0 
  2  3  1  0  0  0  0 
  3  4  1  0  0  0  0 
  3  5  1  0  0  0  0 
  4  5  1  0  0  0  0 
M  END
> <CDK Fingerprint>
AgAAAAAAAAAAAAAAAIAAAAAAAAAAAAAAYAAAAAAAAAAAAAAAECACAAAAAAAAAAAAAkAAAAAAAAAAAAAAAAAAAAAAAAAAAAAAAAAAAAAAABAAAAAAAAAAQAAAAAABAAAAAAAAAAGAAAAAABAAAAAAAAAAAAAA

> <ActivityOutcome_CPDBAS_Rat>
inactive

$$$$

  CDK     0721101958

  5  5  0  0  0  0  0  0  0  0999 V2000
    0.0000   -1.1519    0.0000 O   0  0  0  0  0  2  0  0  0  0  0  0
    1.1519   -1.8168    0.0000 C   0  0  0  0  0  4  0  0  0  0  0  0
    2.3037   -1.1519    0.0000 C   0  0  0  0  0  4  0  0  0  0  0  0
    2.9687    0.0000    0.0000 C   0  0  0  0  0  4  0  0  0  0  0  0
    3.6336   -1.1519    0.0000 O   0  0  0  0  0  2  0  0  0  0  0  0
  1  2  1  0  0  0  0 
  2  3  1  0  0  0  0 
  3  4  1  0  0  0  0 
  3  5  1  0  0  0  0 
  4  5  1  0  0  0  0 
M  END
> <CDK Fingerprint>
AgAAAAAAAAAAAAAAAIAAAAAAAAAAAAAAYAAAAAAAAAAAAAAAGCACAAAAAAAAAAAAAEAAAAAAAAAAAAAAAAAAAAAAAAAAAAAAAAAAAAAAABAAAABAAAAAAAAAAAAAAAAAAAAAAAAAAAAAAAAgAAAAAAAAAAAA

> <ActivityOutcome_CPDBAS_Rat>
active

> <TD50_Rat_mmol>
0.0578

$$$$

  CDK     0721101958

  5  4  0  0  0  0  0  0  0  0999 V2000
    2.3124   -1.3174    0.0000 C   0  0  0  0  0  4  0  0  0  0  0  0
    2.3124    0.0000    0.0000 O   0  0  0  0  0  2  0  0  0  0  0  0
    3.4669   -1.9900    0.0000 O   0  0  0  0  0  2  0  0  0  0  0  0
    0.0000   -1.3001    0.0000 N   0  0  0  0  0  3  0  0  0  0  0  0
    1.1718   -1.9726    0.0000 C   0  0  0  0  0  4  0  0  0  0  0  0
  1  2  2  0  0  0  0 
  1  3  1  0  0  0  0 
  1  5  1  0  0  0  0 
  4  5  1  0  0  0  0 
M  END
> <CDK Fingerprint>
AgAAAgAAAAAAAAAAAAAAAAAAAAAAAAAAAAAAYAAAAAAAAAAAAAAACCAAAAAAAAAAAAAAAAAAAAAAAAAAAAAAAAAAAAAAAAAAAAAAAAAAAAAAABAAAAAAAAAAQAAAAAAAAAAAAAAAAACAAAAAAFAAAAAAAAAAAgAA

> <ActivityOutcome_CPDBAS_Rat>
active

> <TD50_Rat_mmol>
342

$$$$

  CDK     0721101958

 34 38  0  0  0  0  0  0  0  0999 V2000
    6.9160   -4.8390    0.0000 C   0  0  0  0  0  4  0  0  0  0  0  0
    5.7596   -6.8599    0.0000 C   0  0  0  0  0  4  0  0  0  0  0  0
    6.9160   -6.1863    0.0000 C   0  0  0  0  0  4  0  0  0  0  0  0
    3.4693   -6.8599    0.0000 C   0  0  0  0  0  4  0  0  0  0  0  0
    4.6144   -6.1863    0.0000 C   0  0  0  0  0  4  0  0  0  0  0  0
    5.7596   -4.1878    0.0000 C   0  0  0  0  0  4  0  0  0  0  0  0
    4.6144   -4.8390    0.0000 C   0  0  0  0  0  4  0  0  0  0  0  0
    3.4693   -8.1960    0.0000 C   0  0  0  0  0  4  0  0  0  0  0  0
    8.0388   -4.1878    0.0000 C   0  0  0  0  0  4  0  0  0  0  0  0
    2.3128   -8.8584    0.0000 C   0  0  0  0  0  4  0  0  0  0  0  0
    9.1952   -2.1893    0.0000 C   0  0  0  0  0  4  0  0  0  0  0  0
    8.0388   -2.8517    0.0000 C   0  0  0  0  0  4  0  0  0  0  0  0
    9.1952   -4.8390    0.0000 C   0  0  0  0  0  4  0  0  0  0  0  0
    5.7596   -8.1960    0.0000 C   0  0  0  0  0  4  0  0  0  0  0  0
    9.9699   -1.0329    0.0000 C   0  0  0  0  0  4  0  0  0  0  0  0
    2.3128   -6.1863    0.0000 C   0  0  0  0  0  4  0  0  0  0  0  0
    8.0388   -6.8599    0.0000 C   0  0  0  0  0  4  0  0  0  0  0  0
    4.6144   -8.8584    0.0000 C   0  0  0  0  0  4  0  0  0  0  0  0
    1.1676   -8.1960    0.0000 C   0  0  0  0  0  4  0  0  0  0  0  0
    3.4468   -4.2439    0.0000 O   0  0  0  0  0  2  0  0  0  0  0  0
    9.1952   -6.1863    0.0000 C   0  0  0  0  0  4  0  0  0  0  0  0
   10.3404   -2.8517    0.0000 C   0  0  0  0  0  4  0  0  0  0  0  0
   10.3404   -4.1878    0.0000 C   0  0  0  0  0  4  0  0  0  0  0  0
    9.3636    0.0000    0.0000 O   0  0  0  0  0  2  0  0  0  0  0  0
    1.1676   -6.8599    0.0000 C   0  0  0  0  0  4  0  0  0  0  0  0
    5.7821   -5.6698    0.0000 C   0  0  0  0  0  4  0  0  0  0  0  0
    3.5029   -5.4677    0.0000 C   0  0  0  0  0  4  0  0  0  0  0  0
    6.9497   -7.4774    0.0000 C   0  0  0  0  0  4  0  0  0  0  0  0
   11.2274   -1.0329    0.0000 O   0  0  0  0  0  2  0  0  0  0  0  0
    1.6729  -10.3628    0.0000 C   0  0  0  0  0  4  0  0  0  0  0  0
    2.8068  -10.3067    0.0000 C   0  0  0  0  0  4  0  0  0  0  0  0
    0.0000   -8.8921    0.0000 O   0  0  0  0  0  2  0  0  0  0  0  0
    8.4205   -1.0778    0.0000 C   0  0  0  0  0  4  0  0  0  0  0  0
    9.1952   -3.6152    0.0000 C   0  0  0  0  0  4  0  0  0  0  0  0
  1  3  1  0  0  0  0 
  1  6  2  0  0  0  0 
  1  9  1  0  0  0  0 
  2  3  1  0  0  0  0 
  2 14  1  0  0  0  0 
  2 26  1  1  0  0  0 
  2  5  1  0  0  0  0 
  3 17  1  0  0  0  0 
  3 28  1  6  0  0  0 
  4  5  1  0  0  0  0 
  4  8  1  0  0  0  0 
  4 16  1  0  0  0  0 
  4 27  1  1  0  0  0 
  5  7  1  0  0  0  0 
  6  7  1  0  0  0  0 
  7 20  2  0  0  0  0 
  8 10  1  0  0  0  0 
  8 18  1  0  0  0  0 
  9 12  1  0  0  0  0 
  9 13  1  0  0  0  0 
 10 30  1  0  0  0  0 
 10 31  1  0  0  0  0 
 10 19  1  0  0  0  0 
 11 12  1  0  0  0  0 
 11 15  1  0  0  0  0 
 11 33  1  6  0  0  0 
 11 22  1  0  0  0  0 
 13 21  1  0  0  0  0 
 13 23  1  0  0  0  0 
 13 34  1  1  0  0  0 
 14 18  1  0  0  0  0 
 15 24  2  0  0  0  0 
 15 29  1  0  0  0  0 
 16 25  1  0  0  0  0 
 17 21  1  0  0  0  0 
 19 25  1  0  0  0  0 
 19 32  1  1  0  0  0 
 22 23  1  0  0  0  0 
M  END
> <CDK Fingerprint>
QAAAAAAAAAAAgAIRAAQAAAAABoAEQABAAAAAQAEAAAFRCOAAAAAAAAAAACAQABAgACAAAAAQIAAAACBAQAQAAAAAIQRgAAAIAARAAAABAQAAAAAAAQAAAAAQAAAAAAAAAEAAAABAACAAAAAAEAABAAAAAAD4GAAAAAFAFAAAIA==

> <ActivityOutcome_CPDBAS_Rat>
inactive

$$$$

  CDK     0721101958

 22 25  0  0  0  0  0  0  0  0999 V2000
    5.2178   -5.4270    0.0000 O   0  0  0  0  0  2  0  0  0  0  0  0
    5.2975   -4.3615    0.0000 C   0  0  0  0  0  4  0  0  0  0  0  0
    5.2975   -3.0172    0.0000 C   0  0  0  0  0  4  0  0  0  0  0  0
    4.0130   -2.5990    0.0000 C   0  0  0  0  0  4  0  0  0  0  0  0
    3.4653   -1.3742    0.0000 C   0  0  0  0  0  4  0  0  0  0  0  0
    2.1309   -1.2248    0.0000 C   0  0  0  0  0  4  0  0  0  0  0  0
    1.3343   -2.3201    0.0000 C   0  0  0  0  0  4  0  0  0  0  0  0
    1.8820   -3.5449    0.0000 C   0  0  0  0  0  4  0  0  0  0  0  0
    3.2263   -3.6844    0.0000 C   0  0  0  0  0  4  0  0  0  0  0  0
    4.0130   -4.7797    0.0000 C   0  0  0  0  0  4  0  0  0  0  0  0
    0.0000   -2.1807    0.0000 O   0  0  0  0  0  2  0  0  0  0  0  0
    1.5833    0.0000    0.0000 O   0  0  0  0  0  2  0  0  0  0  0  0
    6.4626   -2.3401    0.0000 C   0  0  0  0  0  4  0  0  0  0  0  0
    7.6276   -3.0172    0.0000 C   0  0  0  0  0  4  0  0  0  0  0  0
    8.7927   -2.3401    0.0000 C   0  0  0  0  0  4  0  0  0  0  0  0
    8.7927   -0.9958    0.0000 C   0  0  0  0  0  4  0  0  0  0  0  0
    7.6276   -0.3286    0.0000 C   0  0  0  0  0  4  0  0  0  0  0  0
    6.4626   -0.9958    0.0000 C   0  0  0  0  0  4  0  0  0  0  0  0
    9.9577   -0.3286    0.0000 O   0  0  0  0  0  2  0  0  0  0  0  0
    9.9577   -3.0172    0.0000 O   0  0  0  0  0  2  0  0  0  0  0  0
    7.6276   -4.3615    0.0000 O   0  0  0  0  0  2  0  0  0  0  0  0
    6.4626   -5.0386    0.0000 C   0  0  0  0  0  4  0  0  0  0  0  0
  2  1  1  6  0  0  0 
  2  3  1  0  0  0  0 
  2 10  1  0  0  0  0 
  2 22  1  0  0  0  0 
  3  4  1  0  0  0  0 
  3 13  1  0  0  0  0 
  4  5  2  0  0  0  0 
  4  9  1  0  0  0  0 
  5  6  1  0  0  0  0 
  6  7  2  0  0  0  0 
  6 12  1  0  0  0  0 
  7  8  1  0  0  0  0 
  7 11  1  0  0  0  0 
  8  9  2  0  0  0  0 
  9 10  1  0  0  0  0 
 13 14  2  0  0  0  0 
 13 18  1  0  0  0  0 
 14 15  1  0  0  0  0 
 14 21  1  0  0  0  0 
 15 16  2  0  0  0  0 
 15 20  1  0  0  0  0 
 16 17  1  0  0  0  0 
 16 19  1  0  0  0  0 
 17 18  2  0  0  0  0 
 21 22  1  0  0  0  0 
M  END
> <CDK Fingerprint>
BAAAAAQAEAEAAwKSALgCRBAJCDAIAAAA4AQEAAIAAAluCQJhAdBCgcsAAEhCMAAYIAIEKACACgBEAaYIQEAFUgQPGAUAhBBDDoAgZGMAZoAIEQBAwACEUIGAEAQoCsAMICAKAECgICADHCAGSDAEEKAIHECGCBBHAzEgBAAyQgA=

> <ActivityOutcome_CPDBAS_Rat>
active

> <TD50_Rat_mmol>
3.31

$$$$

  CDK     0721101958

 17 19  0  0  0  0  0  0  0  0999 V2000
    3.2392   -3.7118    0.0000 C   0  0  0  0  0  4  0  0  0  0  0  0
    3.1297   -2.2651    0.0000 C   0  0  0  0  0  4  0  0  0  0  0  0
    3.7637   -1.2104    0.0000 C   0  0  0  0  0  4  0  0  0  0  0  0
    4.1845   -4.2479    0.0000 C   0  0  0  0  0  4  0  0  0  0  0  0
    4.2248   -2.9337    0.0000 C   0  0  0  0  0  4  0  0  0  0  0  0
    1.9481   -4.1787    0.0000 C   0  0  0  0  0  4  0  0  0  0  0  0
    1.9885   -2.8646    0.0000 C   0  0  0  0  0  4  0  0  0  0  0  0
    0.7666   -2.4438    0.0000 C   0  0  0  0  0  4  0  0  0  0  0  0
    0.0000   -3.4582    0.0000 C   0  0  0  0  0  4  0  0  0  0  0  0
    0.6974   -4.5418    0.0000 C   0  0  0  0  0  4  0  0  0  0  0  0
    2.3747   -4.8358    0.0000 Cl  0  0  0  0  0  1  0  0  0  0  0  0
    2.2536   -1.3141    0.0000 Cl  0  0  0  0  0  1  0  0  0  0  0  0
    4.6859   -0.4957    0.0000 Cl  0  0  0  0  0  1  0  0  0  0  0  0
    3.6081    0.0000    0.0000 Cl  0  0  0  0  0  1  0  0  0  0  0  0
    4.4669   -5.3026    0.0000 Cl  0  0  0  0  0  1  0  0  0  0  0  0
    5.3372   -2.5476    0.0000 Cl  0  0  0  0  0  1  0  0  0  0  0  0
    0.2536   -5.7637    0.0000 Cl  0  0  0  0  0  1  0  0  0  0  0  0
  1  3  1  0  0  0  0 
  1  4  1  0  0  0  0 
  1  6  1  0  0  0  0 
  1 11  1  0  0  0  0 
  2  3  1  0  0  0  0 
  2 12  1  0  0  0  0 
  2  7  1  0  0  0  0 
  2  5  1  0  0  0  0 
  3 13  1  0  0  0  0 
  3 14  1  0  0  0  0 
  4  5  2  0  0  0  0 
  4 15  1  0  0  0  0 
  5 16  1  0  0  0  0 
  6  7  1  0  0  0  0 
  6 10  1  0  0  0  0 
  7  8  1  0  0  0  0 
  8  9  2  0  0  0  0 
  9 10  1  0  0  0  0 
 10 17  1  0  0  0  0 
M  END
> <CDK Fingerprint>
QAAAABgAAABAAAAgAAIAAAAgBsAEQABAECAAAIUAAABRCNAAIAIAiAEgAABRwgCgEGIADljQCAAKSgBAAAQBAAAFhhRAgABKAAAEQAARgAAAAADAAAAAAEAARAAAAAQAQgAAAMhAAAAACAAAEAAAAAAwAAGCCAAAAABCEAAAIA==

> <ActivityOutcome_CPDBAS_Rat>
inactive

$$$$

  CDK     0721101958

  8  8  0  0  0  0  0  0  0  0999 V2000
    3.2111   -2.2703    0.0000 C   0  0  0  0  0  4  0  0  0  0  0  0
    2.2703   -3.2111    0.0000 C   0  0  0  0  0  4  0  0  0  0  0  0
    0.9409   -3.2111    0.0000 C   0  0  0  0  0  4  0  0  0  0  0  0
    0.0000   -2.2703    0.0000 C   0  0  0  0  0  4  0  0  0  0  0  0
    0.0000   -0.9409    0.0000 N   0  0  0  0  0  3  0  0  0  0  0  0
    0.9409    0.0000    0.0000 C   0  0  0  0  0  4  0  0  0  0  0  0
    2.2703    0.0000    0.0000 C   0  0  0  0  0  4  0  0  0  0  0  0
    3.2111   -0.9409    0.0000 C   0  0  0  0  0  4  0  0  0  0  0  0
  1  2  1  0  0  0  0 
  1  8  1  0  0  0  0 
  2  3  1  0  0  0  0 
  3  4  1  0  0  0  0 
  4  5  1  0  0  0  0 
  5  6  1  0  0  0  0 
  6  7  1  0  0  0  0 
  7  8  1  0  0  0  0 
M  END
> <CDK Fingerprint>
EAAAAAAAAgAAAAABAAAAAAAAAAAAAEAAAAAAAAAAAAEAYAAEAAAAAAAACAAAACAAEAAAAAAAAABAAMAAAAAAAAAAAAAAQAAAAAAAAAGAAAAAACAAQAAAAAAAAAAAAAAAAAAAAQAAACgIIAAQAAAAAAAAAAAAAAgAAAAAAgAA

> <ActivityOutcome_CPDBAS_Rat>
inactive

$$$$

  CDK     0721101958

  8  7  0  0  0  0  0  0  0  0999 V2000
    8.0744    0.0000    0.0000 C   0  0  0  0  0  4  0  0  0  0  0  0
    6.9197   -0.6621    0.0000 C   0  0  0  0  0  4  0  0  0  0  0  0
    5.7651    0.0000    0.0000 C   0  0  0  0  0  4  0  0  0  0  0  0
    4.6105   -0.6621    0.0000 C   0  0  0  0  0  4  0  0  0  0  0  0
    3.4639    0.0000    0.0000 C   0  0  0  0  0  4  0  0  0  0  0  0
    2.3093   -0.6621    0.0000 C   0  0  0  0  0  4  0  0  0  0  0  0
    1.1546    0.0000    0.0000 C   0  0  0  0  0  4  0  0  0  0  0  0
    0.0000   -0.6621    0.0000 N   0  0  0  0  0  3  0  0  0  0  0  0
  1  2  1  0  0  0  0 
  2  3  1  0  0  0  0 
  3  4  1  0  0  0  0 
  4  5  1  0  0  0  0 
  5  6  1  0  0  0  0 
  6  7  1  0  0  0  0 
  7  8  1  0  0  0  0 
M  END
> <CDK Fingerprint>
AgAAAAABAAAAAAAAAAAAAEAAAAAAAAAAAAEAYAAAAAAAAAAAAAAAACAAAAAAAAAAAAAAAEAAAAAAAAAAAAAAQAAAAAAAAAEAAAAAAAAAAAAAAAAAAAAAAAAAAAAAAQAAACAIAAAQAAAAAAAAAAAAAAAAAAAAAgAA

> <ActivityOutcome_CPDBAS_Rat>
inactive

$$$$

  CDK     0721101958

 12 12  0  0  0  0  0  0  0  0999 V2000
    0.0000   -2.3036    0.0000 Cl  0  0  0  0  0  1  0  0  0  0  0  0
    1.3300   -2.3036    0.0000 C   0  0  0  0  0  4  0  0  0  0  0  0
    1.9950   -1.1491    0.0000 C   0  0  0  0  0  4  0  0  0  0  0  0
    3.3250   -1.1491    0.0000 C   0  0  0  0  0  4  0  0  0  0  0  0
    3.9901   -2.3036    0.0000 C   0  0  0  0  0  4  0  0  0  0  0  0
    3.3250   -3.4581    0.0000 C   0  0  0  0  0  4  0  0  0  0  0  0
    1.9950   -3.4581    0.0000 C   0  0  0  0  0  4  0  0  0  0  0  0
    1.3300   -4.6072    0.0000 Cl  0  0  0  0  0  1  0  0  0  0  0  0
    3.9901   -4.6072    0.0000 Cl  0  0  0  0  0  1  0  0  0  0  0  0
    5.3201   -2.3036    0.0000 Cl  0  0  0  0  0  1  0  0  0  0  0  0
    3.9901    0.0000    0.0000 Cl  0  0  0  0  0  1  0  0  0  0  0  0
    1.3300    0.0000    0.0000 Cl  0  0  0  0  0  1  0  0  0  0  0  0
  1  2  1  0  0  0  0 
  2  3  2  0  0  0  0 
  2  7  1  0  0  0  0 
  3  4  1  0  0  0  0 
  3 12  1  0  0  0  0 
  4  5  2  0  0  0  0 
  4 11  1  0  0  0  0 
  5  6  1  0  0  0  0 
  5 10  1  0  0  0  0 
  6  7  2  0  0  0  0 
  6  9  1  0  0  0  0 
  7  8  1  0  0  0  0 
M  END
> <CDK Fingerprint>
CAAAAAAAAAAAAAgAAAAAAAAAAAAAAAAAAAAAAAAAAAAAAMAAAAAAAAAAAAAAAAAgAAAAAAAAAEBAAAAAAAABAAAAAAAAAAAAAAAAAAAAAAAEAAAAAAAAAQEAAAAAAAAgAAAAgCAEAAAAAEIAAAAAAAAAAIAAAAAAAAAAAAAAAA==

> <ActivityOutcome_CPDBAS_Rat>
active

> <TD50_Rat_mmol>
0.0136

$$$$

  CDK     0721101958

 10  9  0  0  0  0  0  0  0  0999 V2000
    2.3047    0.0000    0.0000 Cl  0  0  0  0  0  1  0  0  0  0  0  0
    2.3047   -1.3309    0.0000 C   0  0  0  0  0  4  0  0  0  0  0  0
    1.1523   -1.9935    0.0000 C   0  0  0  0  0  4  0  0  0  0  0  0
    1.1523   -3.3245    0.0000 Cl  0  0  0  0  0  1  0  0  0  0  0  0
    0.0000   -1.3309    0.0000 Cl  0  0  0  0  0  1  0  0  0  0  0  0
    3.4570   -1.9935    0.0000 C   0  0  0  0  0  4  0  0  0  0  0  0
    4.6093   -1.3309    0.0000 C   0  0  0  0  0  4  0  0  0  0  0  0
    5.7617   -1.9935    0.0000 Cl  0  0  0  0  0  1  0  0  0  0  0  0
    4.6093    0.0000    0.0000 Cl  0  0  0  0  0  1  0  0  0  0  0  0
    3.4570   -3.3245    0.0000 Cl  0  0  0  0  0  1  0  0  0  0  0  0
  1  2  1  0  0  0  0 
  2  3  2  0  0  0  0 
  2  6  1  0  0  0  0 
  3  4  1  0  0  0  0 
  3  5  1  0  0  0  0 
  6  7  2  0  0  0  0 
  6 10  1  0  0  0  0 
  7  8  1  0  0  0  0 
  7  9  1  0  0  0  0 
M  END
> <CDK Fingerprint>
QAAAAAAAAAAAAAAAAAAAAAAAAAAAAAAAAAAEAIAAAAAAAMAAAAAAAAAAAAAAAAAgAAAABgAQAAAAQAAAAAABAAAABAAAAAAAAAAAAAAAAAAAAADAAAAAAAAAAAAAAAAAAAAAAAAAAAAAAAAAAABAAAAgAAAAAAIAAAAAAAAAAA==

> <ActivityOutcome_CPDBAS_Rat>
active

> <TD50_Rat_mmol>
0.252

$$$$

  CDK     0721101958

 12 12  0  0  0  0  0  0  0  0999 V2000
    3.6345    3.5001    0.0000 C   0  0  0  0  0  4  0  0  0  0  0  0
    3.6345    2.1001    0.0000 C   0  0  0  0  0  4  0  0  0  0  0  0
    2.4305    4.2002    0.0000 C   0  0  0  0  0  4  0  0  0  0  0  0
    2.4305    1.4001    0.0000 C   0  0  0  0  0  4  0  0  0  0  0  0
    1.2208    3.5001    0.0000 C   0  0  0  0  0  4  0  0  0  0  0  0
    1.2208    2.1001    0.0000 C   0  0  0  0  0  4  0  0  0  0  0  0
    0.0000    4.2002    0.0000 Cl  0  0  0  0  0  1  0  0  0  0  0  0
    2.4305    5.6002    0.0000 Cl  0  0  0  0  0  1  0  0  0  0  0  0
    4.8553    4.2002    0.0000 Cl  0  0  0  0  0  1  0  0  0  0  0  0
    4.8553    1.4001    0.0000 Cl  0  0  0  0  0  1  0  0  0  0  0  0
    2.4305    0.0000    0.0000 Cl  0  0  0  0  0  1  0  0  0  0  0  0
    0.0000    1.4001    0.0000 Cl  0  0  0  0  0  1  0  0  0  0  0  0
  1  2  1  0  0  0  0 
  1  3  1  0  0  0  0 
  1  9  1  1  0  0  0 
  2  4  1  0  0  0  0 
  2 10  1  6  0  0  0 
  3  5  1  0  0  0  0 
  3  8  1  1  0  0  0 
  4  6  1  0  0  0  0 
  4 11  1  1  0  0  0 
  5  6  1  0  0  0  0 
  5  7  1  6  0  0  0 
  6 12  1  6  0  0  0 
M  END
> <CDK Fingerprint>
QAAAAAAAAAAAAQDAAAAAAAAAAAAAAAAAoAAAAAJAAAAAAAAAQAAAAQAAAYQAAIAAQgAAAAAAAAAAAAAAAAAAAAAAAAAAAAAAAAAAAAAAAAAAAAAAABAAAAAAAAAAAAAAAAAAAAAAAAA=

> <ActivityOutcome_CPDBAS_Rat>
active

> <TD50_Rat_mmol>
0.0385

$$$$

  CDK     0721101958

 12 12  0  0  0  0  0  0  0  0999 V2000
    1.2383    2.1028    0.0000 C   0  0  0  0  0  4  0  0  0  0  0  0
    1.2383    3.4862    0.0000 C   0  0  0  0  0  4  0  0  0  0  0  0
    2.4487    1.4056    0.0000 C   0  0  0  0  0  4  0  0  0  0  0  0
    0.0000    1.3834    0.0000 Cl  0  0  0  0  0  1  0  0  0  0  0  0
    2.4487    4.1778    0.0000 C   0  0  0  0  0  4  0  0  0  0  0  0
    0.0000    4.2056    0.0000 Cl  0  0  0  0  0  1  0  0  0  0  0  0
    3.6311    2.1028    0.0000 C   0  0  0  0  0  4  0  0  0  0  0  0
    2.4487    0.0000    0.0000 Cl  0  0  0  0  0  1  0  0  0  0  0  0
    3.6311    3.4862    0.0000 C   0  0  0  0  0  4  0  0  0  0  0  0
    2.4487    5.5778    0.0000 Cl  0  0  0  0  0  1  0  0  0  0  0  0
    4.8694    1.3834    0.0000 Cl  0  0  0  0  0  1  0  0  0  0  0  0
    4.8694    4.2056    0.0000 Cl  0  0  0  0  0  1  0  0  0  0  0  0
  1  2  1  0  0  0  0 
  1  3  1  0  0  0  0 
  1  4  1  1  0  0  0 
  2  5  1  0  0  0  0 
  2  6  1  6  0  0  0 
  3  7  1  0  0  0  0 
  3  8  1  1  0  0  0 
  5  9  1  0  0  0  0 
  5 10  1  1  0  0  0 
  7 11  1  6  0  0  0 
  7  9  1  0  0  0  0 
  9 12  1  1  0  0  0 
M  END
> <CDK Fingerprint>
QAAAAAAAAAAAAQDAAAAAAAAAAAAAAAAAoAAAAAJAAAAAAAAAQAAAAQAAAYQAAIAAQgAAAAAAAAAAAAAAAAAAAAAAAAAAAAAAAAAAAAAAAAAAAAAAABAAAAAAAAAAAAAAAAAAAAAAAAA=

> <ActivityOutcome_CPDBAS_Rat>
inactive

$$$$

  CDK     0721101958

 11 11  0  0  0  0  0  0  0  0999 V2000
    3.4265   -0.1676    0.0000 Cl  0  0  0  0  0  1  0  0  0  0  0  0
    3.2868   -1.4898    0.0000 C   0  0  0  0  0  4  0  0  0  0  0  0
    3.4265   -2.8119    0.0000 C   0  0  0  0  0  4  0  0  0  0  0  0
    2.2114   -3.3566    0.0000 C   0  0  0  0  0  4  0  0  0  0  0  0
    1.3222   -2.3650    0.0000 C   0  0  0  0  0  4  0  0  0  0  0  0
    1.9879   -1.2151    0.0000 C   0  0  0  0  0  4  0  0  0  0  0  0
    1.4479    0.0000    0.0000 Cl  0  0  0  0  0  1  0  0  0  0  0  0
    0.0000   -2.5047    0.0000 Cl  0  0  0  0  0  1  0  0  0  0  0  0
    1.9367   -4.6555    0.0000 Cl  0  0  0  0  0  1  0  0  0  0  0  0
    4.5810   -3.4777    0.0000 Cl  0  0  0  0  0  1  0  0  0  0  0  0
    4.6183   -1.4898    0.0000 Cl  0  0  0  0  0  1  0  0  0  0  0  0
  1  2  1  0  0  0  0 
  2  3  1  0  0  0  0 
  2  6  1  0  0  0  0 
  2 11  1  0  0  0  0 
  3  4  2  0  0  0  0 
  3 10  1  0  0  0  0 
  4  5  1  0  0  0  0 
  4  9  1  0  0  0  0 
  5  6  2  0  0  0  0 
  5  8  1  0  0  0  0 
  6  7  1  0  0  0  0 
M  END
> <CDK Fingerprint>
QAAAAAAAAAAAAAAAAAAAAAAAAAAEAAAAAAAEAIAAAAAAANAAAAAAAAAAAAAAQAAgAAAABgAQAAAAQABAAAABAAAABCQAgAACAAAAQAAQgABAAADQAAAAAAAAQAAAAAAAAgAAAAAAIAAAAAAAAABgAAAwAAAACAIAAAAAACAAAA==

> <ActivityOutcome_CPDBAS_Rat>
inactive

$$$$

  CDK     0721101958

  8  7  0  0  0  0  0  0  0  0999 V2000
    0.0000   -1.3283    0.0000 Cl  0  0  0  0  0  1  0  0  0  0  0  0
    1.3283   -1.3283    0.0000 C   0  0  0  0  0  4  0  0  0  0  0  0
    1.3283   -2.6606    0.0000 C   0  0  0  0  0  4  0  0  0  0  0  0
    2.6606   -2.6606    0.0000 Cl  0  0  0  0  0  1  0  0  0  0  0  0
    1.3283   -3.9889    0.0000 Cl  0  0  0  0  0  1  0  0  0  0  0  0
    0.0000   -2.6606    0.0000 Cl  0  0  0  0  0  1  0  0  0  0  0  0
    1.3283    0.0000    0.0000 Cl  0  0  0  0  0  1  0  0  0  0  0  0
    2.6606   -1.3283    0.0000 Cl  0  0  0  0  0  1  0  0  0  0  0  0
  1  2  1  0  0  0  0 
  2  3  1  0  0  0  0 
  2  7  1  0  0  0  0 
  2  8  1  0  0  0  0 
  3  4  1  0  0  0  0 
  3  5  1  0  0  0  0 
  3  6  1  0  0  0  0 
M  END
> <CDK Fingerprint>
AMAAAAAAAAAAAAAAAAAgAAAABgAAAAAAAAAAAAABAAAABAAAAAAAAAAAAAAAAAAAAAAAAAAAAAAAAAAAAAAAAAAAAAAAAAAAAAAAAAAAAAAAAAAAAAAAAAAAAAAAAA==

> <ActivityOutcome_CPDBAS_Rat>
active

> <TD50_Rat_mmol>
0.234

$$$$

  CDK     0721101958

 21 22  0  0  0  0  0  0  0  0999 V2000
    2.3028   -5.3074    0.0000 O   0  0  0  0  0  2  0  0  0  0  0  0
    2.3028   -3.9830    0.0000 C   0  0  0  0  0  4  0  0  0  0  0  0
    1.1465   -3.3208    0.0000 C   0  0  0  0  0  4  0  0  0  0  0  0
    1.1465   -1.9866    0.0000 C   0  0  0  0  0  4  0  0  0  0  0  0
    2.3028   -1.3244    0.0000 C   0  0  0  0  0  4  0  0  0  0  0  0
    3.4493   -1.9866    0.0000 C   0  0  0  0  0  4  0  0  0  0  0  0
    3.4493   -3.3208    0.0000 C   0  0  0  0  0  4  0  0  0  0  0  0
    4.9417   -4.1807    0.0000 C   0  0  0  0  0  4  0  0  0  0  0  0
    6.4341   -3.3208    0.0000 C   0  0  0  0  0  4  0  0  0  0  0  0
    6.4341   -1.9866    0.0000 C   0  0  0  0  0  4  0  0  0  0  0  0
    7.5805   -1.3244    0.0000 C   0  0  0  0  0  4  0  0  0  0  0  0
    8.7369   -1.9866    0.0000 C   0  0  0  0  0  4  0  0  0  0  0  0
    8.7369   -3.3208    0.0000 C   0  0  0  0  0  4  0  0  0  0  0  0
    7.5805   -3.9830    0.0000 C   0  0  0  0  0  4  0  0  0  0  0  0
    7.5805   -5.3074    0.0000 Cl  0  0  0  0  0  1  0  0  0  0  0  0
    9.8833   -3.9830    0.0000 Cl  0  0  0  0  0  1  0  0  0  0  0  0
    7.5805    0.0000    0.0000 Cl  0  0  0  0  0  1  0  0  0  0  0  0
    5.4655   -1.3936    0.0000 O   0  0  0  0  0  2  0  0  0  0  0  0
    4.1115   -1.5912    0.0000 Cl  0  0  0  0  0  1  0  0  0  0  0  0
    2.3028    0.0000    0.0000 Cl  0  0  0  0  0  1  0  0  0  0  0  0
    0.0000   -3.9830    0.0000 Cl  0  0  0  0  0  1  0  0  0  0  0  0
  1  2  1  0  0  0  0 
  2  3  2  0  0  0  0 
  2  7  1  0  0  0  0 
  3  4  1  0  0  0  0 
  3 21  1  0  0  0  0 
  4  5  2  0  0  0  0 
  5  6  1  0  0  0  0 
  5 20  1  0  0  0  0 
  6  7  2  0  0  0  0 
  6 19  1  0  0  0  0 
  7  8  1  0  0  0  0 
  8  9  1  0  0  0  0 
  9 10  2  0  0  0  0 
  9 14  1  0  0  0  0 
 10 11  1  0  0  0  0 
 10 18  1  0  0  0  0 
 11 12  2  0  0  0  0 
 11 17  1  0  0  0  0 
 12 13  1  0  0  0  0 
 13 14  2  0  0  0  0 
 13 16  1  0  0  0  0 
 14 15  1  0  0  0  0 
M  END
> <CDK Fingerprint>
ARgAAAAAAAABAABaAIoAABABRAAAAAAACAAAAAAAAAAoAALhAAAAAAAEAABCAAAgIAAAIAAAAABAQQAMQAAgAQAGCAAABAABAAAABAAAIqAIDgAAKAAAAAGBAAQAAIAAIIAAAMAgJACAAABWQAAEAAEAFACBAABBAAAAAAAAAAA=

> <ActivityOutcome_CPDBAS_Rat>
inactive

$$$$

  CDK     0721101958

 10 12  0  0  0  0  0  0  0  0999 V2000
    0.5559   -2.0884    0.0000 N   0  0  0  0  0  3  0  0  0  0  0  0
    2.9112   -1.9879    0.0000 N   0  0  0  0  0  3  0  0  0  0  0  0
    1.0269   -2.6850    0.0000 N   0  0  0  0  0  3  0  0  0  0  0  0
    1.7586    0.0000    0.0000 N   0  0  0  0  0  3  0  0  0  0  0  0
    2.3427   -3.1404    0.0000 C   0  0  0  0  0  4  0  0  0  0  0  0
    1.8120   -2.5720    0.0000 C   0  0  0  0  0  4  0  0  0  0  0  0
    1.0269   -1.0144    0.0000 C   0  0  0  0  0  4  0  0  0  0  0  0
    0.5559   -0.6469    0.0000 C   0  0  0  0  0  4  0  0  0  0  0  0
    2.9112   -0.6720    0.0000 C   0  0  0  0  0  4  0  0  0  0  0  0
    0.0000   -3.1404    0.0000 C   0  0  0  0  0  4  0  0  0  0  0  0
  1  6  1  0  0  0  0 
  1  8  1  0  0  0  0 
  1 10  1  0  0  0  0 
  2  6  1  0  0  0  0 
  2  5  1  0  0  0  0 
  2  9  1  0  0  0  0 
  3 10  1  0  0  0  0 
  3  5  1  0  0  0  0 
  3  7  1  0  0  0  0 
  4  8  1  0  0  0  0 
  4  9  1  0  0  0  0 
  4  7  1  0  0  0  0 
M  END
> <CDK Fingerprint>
EABAAAAAAAAAAAAAAAAAAAAAAAAAAAAAAABgAAAAQAAAAAAAAAAAAAAAAAAAAAAAAAAAgAAAAAAAAAAAAAAAAAAAAADAAAAIAAAAAAAAAAAAAAAAAAAAAAAAAAAAAAAAAAAAAAAAAAAAQAAAAEAAQAAAAAACAAA=

> <ActivityOutcome_CPDBAS_Rat>
inactive

$$$$

  CDK     0721101958

 21 21  0  0  0  0  0  0  0  0999 V2000
    3.9879   -5.7563    0.0000 N   0  0  0  0  0  3  0  0  0  0  0  0
    3.3248   -4.6050    0.0000 C   0  0  0  0  0  4  0  0  0  0  0  0
    3.9879   -3.4538    0.0000 N   0  0  0  0  0  3  0  0  0  0  0  0
    5.3142   -3.4538    0.0000 C   0  0  0  0  0  4  0  0  0  0  0  0
    5.9865   -2.3025    0.0000 N   0  0  0  0  0  3  0  0  0  0  0  0
    7.3128   -2.3025    0.0000 C   0  0  0  0  0  4  0  0  0  0  0  0
    7.9759   -1.1513    0.0000 O   0  0  0  0  0  2  0  0  0  0  0  0
    5.3142   -1.1513    0.0000 C   0  0  0  0  0  4  0  0  0  0  0  0
    5.9865    0.0000    0.0000 O   0  0  0  0  0  2  0  0  0  0  0  0
    1.9986   -4.6050    0.0000 N   0  0  0  0  0  3  0  0  0  0  0  0
    1.3262   -3.4538    0.0000 C   0  0  0  0  0  4  0  0  0  0  0  0
    0.0000   -3.4538    0.0000 O   0  0  0  0  0  2  0  0  0  0  0  0
    1.3262   -5.7563    0.0000 C   0  0  0  0  0  4  0  0  0  0  0  0
    0.0000   -5.7563    0.0000 O   0  0  0  0  0  2  0  0  0  0  0  0
    5.3142   -5.7563    0.0000 C   0  0  0  0  0  4  0  0  0  0  0  0
    5.9865   -4.6050    0.0000 N   0  0  0  0  0  3  0  0  0  0  0  0
    5.9865   -6.9075    0.0000 N   0  0  0  0  0  3  0  0  0  0  0  0
    7.3128   -6.9075    0.0000 C   0  0  0  0  0  4  0  0  0  0  0  0
    7.9759   -8.0588    0.0000 O   0  0  0  0  0  2  0  0  0  0  0  0
    5.3142   -8.0588    0.0000 C   0  0  0  0  0  4  0  0  0  0  0  0
    5.9865   -9.2100    0.0000 O   0  0  0  0  0  2  0  0  0  0  0  0
  1  2  2  0  0  0  0 
  1 15  1  0  0  0  0 
  2  3  1  0  0  0  0 
  2 10  1  0  0  0  0 
  3  4  2  0  0  0  0 
  4  5  1  0  0  0  0 
  4 16  1  0  0  0  0 
  5  6  1  0  0  0  0 
  5  8  1  0  0  0  0 
  6  7  1  0  0  0  0 
  8  9  1  0  0  0  0 
 10 11  1  0  0  0  0 
 10 13  1  0  0  0  0 
 11 12  1  0  0  0  0 
 13 14  1  0  0  0  0 
 15 16  2  0  0  0  0 
 15 17  1  0  0  0  0 
 17 18  1  0  0  0  0 
 17 20  1  0  0  0  0 
 18 19  1  0  0  0  0 
 20 21  1  0  0  0  0 
M  END
> <CDK Fingerprint>
AIIAgAoEAEABAgAAIQAAQAAAAAAAAAQQAAAAAAAEAAAAYAAgAAAAAAAAAAAAAAAAAQEAAIABAAIAAIAAAAAAAAAAEAAAAABAAAAAAAQAgAAAAAABAARgAAEEAAAAAAAAAAAAAAAQAAAAABAAAAAAAAAAAAAQAAAAEAAAAgAC

> <ActivityOutcome_CPDBAS_Rat>
active

> <TD50_Rat_mmol>
0.0333

$$$$

  CDK     0721101958

 11 10  0  0  0  0  0  0  0  0999 V2000
    1.3337   -1.9906    0.0000 P   0  0  0  0  0  5  0  0  0  0  0  0
    1.3337   -0.6569    0.0000 N   0  0  0  0  0  3  0  0  0  0  0  0
    1.3337   -3.3243    0.0000 N   0  0  0  0  0  3  0  0  0  0  0  0
    2.6634   -1.9906    0.0000 N   0  0  0  0  0  3  0  0  0  0  0  0
    0.0000   -1.9906    0.0000 O   0  0  0  0  0  2  0  0  0  0  0  0
    0.1752   -3.9812    0.0000 C   0  0  0  0  0  4  0  0  0  0  0  0
    2.4882    0.0000    0.0000 C   0  0  0  0  0  4  0  0  0  0  0  0
    2.4723   -3.9812    0.0000 C   0  0  0  0  0  4  0  0  0  0  0  0
    3.3402   -3.1610    0.0000 C   0  0  0  0  0  4  0  0  0  0  0  0
    0.1911    0.0000    0.0000 C   0  0  0  0  0  4  0  0  0  0  0  0
    3.3402   -0.8520    0.0000 C   0  0  0  0  0  4  0  0  0  0  0  0
  1  2  1  0  0  0  0 
  1  3  1  0  0  0  0 
  1  4  1  0  0  0  0 
  1  5  2  0  0  0  0 
  2  7  1  0  0  0  0 
  2 10  1  0  0  0  0 
  3  6  1  0  0  0  0 
  3  8  1  0  0  0  0 
  4  9  1  0  0  0  0 
  4 11  1  0  0  0  0 
M  END
> <CDK Fingerprint>
AgAAAAAAAAAAAAAAAAFgAAAAAAAAAAAAAAAAAAAAAAAAAAAAAAAAgAAAAAAABAAAAAAAAAAAAACAAAAAAAAAAAAAAAAAAAAAAAAAAAAAAAAAAAQAAAAAAAQAAAAAAAAAIAAAAAAIAAADAAA=

> <ActivityOutcome_CPDBAS_Rat>
active

> <TD50_Rat_mmol>
0.000192

$$$$

  CDK     0721101958

  8  7  0  0  0  0  0  0  0  0999 V2000
    3.9913    0.0000    0.0000 N   0  0  0  0  0  3  0  0  0  0  0  0
    4.6555   -1.1549    0.0000 C   0  0  0  0  0  4  0  0  0  0  0  0
    5.9839   -1.1549    0.0000 O   0  0  0  0  0  2  0  0  0  0  0  0
    3.9913   -2.3038    0.0000 C   0  0  0  0  0  4  0  0  0  0  0  0
    2.6569   -2.3038    0.0000 C   0  0  0  0  0  4  0  0  0  0  0  0
    1.9926   -1.1549    0.0000 C   0  0  0  0  0  4  0  0  0  0  0  0
    0.6642   -1.1549    0.0000 C   0  0  0  0  0  4  0  0  0  0  0  0
    0.0000    0.0000    0.0000 C   0  0  0  0  0  4  0  0  0  0  0  0
  1  2  1  0  0  0  0 
  2  3  2  0  0  0  0 
  2  4  1  0  0  0  0 
  4  5  1  0  0  0  0 
  5  6  1  0  0  0  0 
  6  7  1  0  0  0  0 
  7  8  1  0  0  0  0 
M  END
> <CDK Fingerprint>
AgAAAAABAAAAAAAAAAAAAEAAAAAAAAAAAQEAYAAAAAAAAAAAAAAAACAAAAAAAAAAAAAAIEAAAAAAAAAAAAAAQAAAAAAAAAAAAAAAAAAAAAAAAAAAAAAAAAAAQAAAAQAAAAAIAAAQAAEAAAAAAFAAAAAAAAAEAgAA

> <ActivityOutcome_CPDBAS_Rat>
inactive

$$$$

  CDK     0721101958

 17 17  0  0  0  0  0  0  0  0999 V2000
    6.6542   -3.4618    0.0000 C   0  0  0  0  0  4  0  0  0  0  0  0
    5.9858   -2.3045    0.0000 C   0  0  0  0  0  4  0  0  0  0  0  0
    6.6542   -1.1573    0.0000 C   0  0  0  0  0  4  0  0  0  0  0  0
    7.9811   -1.1573    0.0000 C   0  0  0  0  0  4  0  0  0  0  0  0
    8.6495   -2.3045    0.0000 C   0  0  0  0  0  4  0  0  0  0  0  0
    7.9811   -3.4618    0.0000 C   0  0  0  0  0  4  0  0  0  0  0  0
    8.6495   -4.6091    0.0000 C   0  0  0  0  0  4  0  0  0  0  0  0
    9.9764   -2.3045    0.0000 C   0  0  0  0  0  4  0  0  0  0  0  0
    8.6495    0.0000    0.0000 O   0  0  0  0  0  2  0  0  0  0  0  0
    5.9858    0.0000    0.0000 C   0  0  0  0  0  4  0  0  0  0  0  0
    5.9858   -4.6091    0.0000 O   0  0  0  0  0  2  0  0  0  0  0  0
    4.6590   -4.6091    0.0000 C   0  0  0  0  0  4  0  0  0  0  0  0
    3.9905   -3.4618    0.0000 C   0  0  0  0  0  4  0  0  0  0  0  0
    2.6637   -3.4618    0.0000 C   0  0  0  0  0  4  0  0  0  0  0  0
    1.9953   -2.3045    0.0000 C   0  0  0  0  0  4  0  0  0  0  0  0
    0.6684   -2.3045    0.0000 C   0  0  0  0  0  4  0  0  0  0  0  0
    0.0000   -1.1573    0.0000 C   0  0  0  0  0  4  0  0  0  0  0  0
  1  2  2  0  0  0  0 
  1  6  1  0  0  0  0 
  1 11  1  0  0  0  0 
  2  3  1  0  0  0  0 
  3  4  2  0  0  0  0 
  3 10  1  0  0  0  0 
  4  5  1  0  0  0  0 
  4  9  1  0  0  0  0 
  5  6  2  0  0  0  0 
  5  8  1  0  0  0  0 
  6  7  1  0  0  0  0 
 11 12  1  0  0  0  0 
 12 13  1  0  0  0  0 
 13 14  1  0  0  0  0 
 14 15  1  0  0  0  0 
 15 16  1  0  0  0  0 
 16 17  1  0  0  0  0 
M  END
> <CDK Fingerprint>
CAACABAABAAAAAAAAAAgwAAEAAAAAAFACQJhAAAAgIAAAAgAAAAUMAIgIACAAABAEARIQEAAAgAWEAAAAAABAARiBGAAAIABAQBAAACAQACBEAAASIAAKAAAAEAgICAAAAACQBAAAAEAAACAABAAAAEABAAgAAA=

> <ActivityOutcome_CPDBAS_Rat>
inactive

$$$$

  CDK     0721101958

 12 11  0  0  0  0  0  0  0  0999 V2000
    1.1519    0.0000    0.0000 O   0  0  0  0  0  2  0  0  0  0  0  0
    2.3039   -0.6635    0.0000 C   0  0  0  0  0  4  0  0  0  0  0  0
    2.3039   -1.9998    0.0000 N   0  0  0  0  0  3  0  0  0  0  0  0
    3.4558   -2.6633    0.0000 C   0  0  0  0  0  4  0  0  0  0  0  0
    4.6078   -1.9998    0.0000 C   0  0  0  0  0  4  0  0  0  0  0  0
    5.7597   -2.6633    0.0000 C   0  0  0  0  0  4  0  0  0  0  0  0
    6.9117   -1.9998    0.0000 C   0  0  0  0  0  4  0  0  0  0  0  0
    8.0636   -2.6633    0.0000 C   0  0  0  0  0  4  0  0  0  0  0  0
    9.2156   -1.9998    0.0000 C   0  0  0  0  0  4  0  0  0  0  0  0
    1.1519   -2.6633    0.0000 N   0  0  0  0  0  3  0  0  0  0  0  0
    0.0000   -1.9998    0.0000 O   0  0  0  0  0  2  0  0  0  0  0  0
    3.4558    0.0000    0.0000 N   0  0  0  0  0  3  0  0  0  0  0  0
  1  2  2  0  0  0  0 
  2  3  1  0  0  0  0 
  2 12  1  0  0  0  0 
  3  4  1  0  0  0  0 
  3 10  1  0  0  0  0 
  4  5  1  0  0  0  0 
  5  6  1  0  0  0  0 
  6  7  1  0  0  0  0 
  7  8  1  0  0  0  0 
  8  9  1  0  0  0  0 
 10 11  2  0  0  0  0 
M  END
> <CDK Fingerprint>
AgAAAAAAAhAASAABgAABAAAAABAAAEAAAAAAAAAEBQEAYAAAAoAAAAAAAAABECAAQQACAAAAAAAAQMAAAAKAAAAAAAAAQAAAAAAAAACAAABAACAAQAgAAAAAAAEAAABARCAAAQAIAAAIIAQQAAAgAAAAAEAAAAgAAAAACwAA

> <ActivityOutcome_CPDBAS_Rat>
active

> <TD50_Rat_mmol>
0.00296

$$$$

  CDK     0721101958

 14 14  0  0  0  0  0  0  0  0999 V2000
    7.9795   -4.6042    0.0000 O   0  0  0  0  0  2  0  0  0  0  0  0
    7.3172   -3.4551    0.0000 C   0  0  0  0  0  4  0  0  0  0  0  0
    5.9846   -3.4551    0.0000 C   0  0  0  0  0  4  0  0  0  0  0  0
    5.3223   -2.2981    0.0000 C   0  0  0  0  0  4  0  0  0  0  0  0
    5.9846   -1.1491    0.0000 C   0  0  0  0  0  4  0  0  0  0  0  0
    7.3172   -1.1491    0.0000 C   0  0  0  0  0  4  0  0  0  0  0  0
    7.9795   -2.2981    0.0000 C   0  0  0  0  0  4  0  0  0  0  0  0
    7.9795    0.0000    0.0000 O   0  0  0  0  0  2  0  0  0  0  0  0
    5.3223   -4.6042    0.0000 C   0  0  0  0  0  4  0  0  0  0  0  0
    3.9898   -4.6042    0.0000 C   0  0  0  0  0  4  0  0  0  0  0  0
    3.3275   -3.4551    0.0000 C   0  0  0  0  0  4  0  0  0  0  0  0
    1.9949   -3.4551    0.0000 C   0  0  0  0  0  4  0  0  0  0  0  0
    1.3326   -2.2981    0.0000 C   0  0  0  0  0  4  0  0  0  0  0  0
    0.0000   -2.2981    0.0000 C   0  0  0  0  0  4  0  0  0  0  0  0
  1  2  1  0  0  0  0 
  2  3  2  0  0  0  0 
  2  7  1  0  0  0  0 
  3  4  1  0  0  0  0 
  3  9  1  0  0  0  0 
  4  5  2  0  0  0  0 
  5  6  1  0  0  0  0 
  6  7  2  0  0  0  0 
  6  8  1  0  0  0  0 
  9 10  1  0  0  0  0 
 10 11  1  0  0  0  0 
 11 12  1  0  0  0  0 
 12 13  1  0  0  0  0 
 13 14  1  0  0  0  0 
M  END
> <CDK Fingerprint>
IAAAAAAAAAASAAAAAABIAgAAABAAQAAAAAAAAAAIAQJhAAACAAgAAABAIAAAIAAAIAAAAABAAAAAQAAAAAAGCAAAAAABBAAAAGIAAYAAEAAAAAAAAAiAEAAgAIgAIAACAEAgIAAAAAAGQBAEAAAAHACACAAEAgAAAAAAAAA=

> <ActivityOutcome_CPDBAS_Rat>
inactive

$$$$

  CDK     0721101958

 14 15  0  0  0  0  0  0  0  0999 V2000
    4.3386   -1.1499    0.0000 C   0  0  0  0  0  4  0  0  0  0  0  0
    3.5559   -2.2321    0.0000 N   0  0  0  0  0  3  0  0  0  0  0  0
    2.2901   -1.8166    0.0000 C   0  0  0  0  0  4  0  0  0  0  0  0
    2.2901   -0.4831    0.0000 S   0  0  0  0  0  2  0  0  0  0  0  0
    3.5559   -0.0773    0.0000 C   0  0  0  0  0  4  0  0  0  0  0  0
    1.2175   -2.5993    0.0000 N   0  0  0  0  0  3  0  0  0  0  0  0
    0.0000   -2.0582    0.0000 N   0  0  0  0  0  3  0  0  0  0  0  0
    5.6721   -1.1499    0.0000 C   0  0  0  0  0  4  0  0  0  0  0  0
    6.3388    0.0000    0.0000 C   0  0  0  0  0  4  0  0  0  0  0  0
    7.6627    0.0000    0.0000 C   0  0  0  0  0  4  0  0  0  0  0  0
    8.3294   -1.1499    0.0000 C   0  0  0  0  0  4  0  0  0  0  0  0
    7.6627   -2.2998    0.0000 C   0  0  0  0  0  4  0  0  0  0  0  0
    6.3388   -2.2998    0.0000 C   0  0  0  0  0  4  0  0  0  0  0  0
    9.6629   -1.1499    0.0000 N   0  0  0  0  0  3  0  0  0  0  0  0
  1  2  1  0  0  0  0 
  1  5  2  0  0  0  0 
  1  8  1  0  0  0  0 
  2  3  2  0  0  0  0 
  3  4  1  0  0  0  0 
  3  6  1  0  0  0  0 
  4  5  1  0  0  0  0 
  6  7  1  0  0  0  0 
  8  9  2  0  0  0  0 
  8 13  1  0  0  0  0 
  9 10  1  0  0  0  0 
 10 11  2  0  0  0  0 
 11 12  1  0  0  0  0 
 11 14  1  0  0  0  0 
 12 13  2  0  0  0  0 
M  END
> <CDK Fingerprint>
AgaIgAIFYAAQAAEAhAABiIAgAJEAwQACAAAGDEACAACRZAAAAABBAAQAAgAAAKAAQAAAAAAAQIKAAAAAAAABTAICBAQAEAMAAAAAIAAAABAABAADIAgRoACgAICIACABECJAIIAAwIhQAkQIkAIAAABBgAEAABAICAACAxAA

> <ActivityOutcome_CPDBAS_Rat>
active

> <TD50_Rat_mmol>
0.00499

$$$$

  CDK     0721101958

 15 16  0  0  0  0  0  0  0  0999 V2000
    0.0000   -2.9202    0.0000 N   0  0  0  0  0  3  0  0  0  0  0  0
    0.8939   -1.9369    0.0000 N   0  0  0  0  0  3  0  0  0  0  0  0
    2.1951   -2.2150    0.0000 C   0  0  0  0  0  4  0  0  0  0  0  0
    3.1784   -1.3210    0.0000 N   0  0  0  0  0  3  0  0  0  0  0  0
    4.3306   -1.9865    0.0000 C   0  0  0  0  0  4  0  0  0  0  0  0
    4.0525   -3.2877    0.0000 C   0  0  0  0  0  4  0  0  0  0  0  0
    2.7315   -3.4268    0.0000 S   0  0  0  0  0  2  0  0  0  0  0  0
    5.5523   -1.4402    0.0000 C   0  0  0  0  0  4  0  0  0  0  0  0
    5.8304   -0.1391    0.0000 C   0  0  0  0  0  4  0  0  0  0  0  0
    7.1515    0.0000    0.0000 C   0  0  0  0  0  4  0  0  0  0  0  0
    7.6878   -1.2217    0.0000 C   0  0  0  0  0  4  0  0  0  0  0  0
    6.7045   -2.1057    0.0000 O   0  0  0  0  0  2  0  0  0  0  0  0
    8.9890   -1.4998    0.0000 N   0  0  0  0  0  4  0  0  0  0  0  0
    9.9326   -0.5562    0.0000 O   0  0  0  0  0  1  0  0  0  0  0  0
    9.3367   -2.7811    0.0000 O   0  0  0  0  0  2  0  0  0  0  0  0
  1  2  1  0  0  0  0 
  2  3  1  0  0  0  0 
  3  4  2  0  0  0  0 
  3  7  1  0  0  0  0 
  4  5  1  0  0  0  0 
  5  6  2  0  0  0  0 
  5  8  1  0  0  0  0 
  6  7  1  0  0  0  0 
  8  9  2  0  0  0  0 
  8 12  1  0  0  0  0 
  9 10  1  0  0  0  0 
 10 11  2  0  0  0  0 
 11 12  1  0  0  0  0 
 11 13  1  0  0  0  0 
 13 14  1  0  0  0  0 
 13 15  2  0  0  0  0 
M  CHG  1  13   1
M  CHG  1  14  -1
M  END
> <CDK Fingerprint>
Bgb4wgMnYAAQCAWQlAABSqCigJEQwRABgEEELEAGgACRZIAGAARAGJQAAmEAAKQAQQACAAQGQIKAAAAGoQABTAICVAQAEgNQAIBALIhAEDACBZADBAjFoACgIIiIBGABVCIVIKUA+KByAECwmgIIAMBBAoECAAAIDIACAwCF

> <ActivityOutcome_CPDBAS_Rat>
active

> <TD50_Rat_mmol>
0.0141

$$$$

  CDK     0721101958

 16 17  0  0  0  0  0  0  0  0999 V2000
    4.3377   -1.1567    0.0000 C   0  0  0  0  0  4  0  0  0  0  0  0
    3.5528   -2.2308    0.0000 N   0  0  0  0  0  3  0  0  0  0  0  0
    2.2928   -1.8177    0.0000 C   0  0  0  0  0  4  0  0  0  0  0  0
    2.2928   -0.4854    0.0000 S   0  0  0  0  0  2  0  0  0  0  0  0
    3.5528   -0.0826    0.0000 C   0  0  0  0  0  4  0  0  0  0  0  0
    1.2187   -2.6026    0.0000 N   0  0  0  0  0  3  0  0  0  0  0  0
    0.0000   -2.0656    0.0000 N   0  0  0  0  0  3  0  0  0  0  0  0
    5.6700   -1.1567    0.0000 C   0  0  0  0  0  4  0  0  0  0  0  0
    6.3310    0.0000    0.0000 C   0  0  0  0  0  4  0  0  0  0  0  0
    7.6633    0.0000    0.0000 C   0  0  0  0  0  4  0  0  0  0  0  0
    8.3346   -1.1567    0.0000 C   0  0  0  0  0  4  0  0  0  0  0  0
    7.6633   -2.3031    0.0000 C   0  0  0  0  0  4  0  0  0  0  0  0
    6.3310   -2.3031    0.0000 C   0  0  0  0  0  4  0  0  0  0  0  0
    9.6669   -1.1567    0.0000 N   0  0  0  0  0  4  0  0  0  0  0  0
   10.3278    0.0000    0.0000 O   0  0  0  0  0  1  0  0  0  0  0  0
   10.3278   -2.3031    0.0000 O   0  0  0  0  0  2  0  0  0  0  0  0
  1  2  1  0  0  0  0 
  1  5  2  0  0  0  0 
  1  8  1  0  0  0  0 
  2  3  2  0  0  0  0 
  3  4  1  0  0  0  0 
  3  6  1  0  0  0  0 
  4  5  1  0  0  0  0 
  6  7  1  0  0  0  0 
  8  9  2  0  0  0  0 
  8 13  1  0  0  0  0 
  9 10  1  0  0  0  0 
 10 11  2  0  0  0  0 
 11 12  1  0  0  0  0 
 11 14  1  0  0  0  0 
 12 13  2  0  0  0  0 
 14 15  1  0  0  0  0 
 14 16  2  0  0  0  0 
M  CHG  1  14   1
M  CHG  1  15  -1
M  END
> <CDK Fingerprint>
AgaYggIFYAAQCAEAhAABiIAgAJEYwQACAEAGLEAGAACRZAAEAABBAAQAAmAAAKAAQAACAAAGQIaAAAAAAAABTAICBAQAEAMAAAAAIIAAABAABAADIAgVoACgAJCIACABFCJAIIEAwMhwAkSIkAIAAABBgAEAABAICAACAxAA

> <ActivityOutcome_CPDBAS_Rat>
active

> <TD50_Rat_mmol>
0.0136

$$$$

  CDK     0721101958

 13 14  0  0  0  0  0  0  0  0999 V2000
    0.0000   -0.5408    0.0000 N   0  0  0  0  0  3  0  0  0  0  0  0
    1.2147    0.0000    0.0000 N   0  0  0  0  0  3  0  0  0  0  0  0
    2.2880   -0.7821    0.0000 C   0  0  0  0  0  4  0  0  0  0  0  0
    3.5527   -0.3661    0.0000 N   0  0  0  0  0  3  0  0  0  0  0  0
    4.3347   -1.4477    0.0000 C   0  0  0  0  0  4  0  0  0  0  0  0
    3.5527   -2.5210    0.0000 C   0  0  0  0  0  4  0  0  0  0  0  0
    2.2880   -2.1133    0.0000 S   0  0  0  0  0  2  0  0  0  0  0  0
    5.6659   -1.4477    0.0000 C   0  0  0  0  0  4  0  0  0  0  0  0
    6.3232   -0.2912    0.0000 C   0  0  0  0  0  4  0  0  0  0  0  0
    7.6544   -0.2912    0.0000 C   0  0  0  0  0  4  0  0  0  0  0  0
    8.3200   -1.4477    0.0000 C   0  0  0  0  0  4  0  0  0  0  0  0
    7.6544   -2.5959    0.0000 C   0  0  0  0  0  4  0  0  0  0  0  0
    6.3232   -2.5959    0.0000 C   0  0  0  0  0  4  0  0  0  0  0  0
  1  2  1  0  0  0  0 
  2  3  1  0  0  0  0 
  3  4  2  0  0  0  0 
  3  7  1  0  0  0  0 
  4  5  1  0  0  0  0 
  5  6  2  0  0  0  0 
  5  8  1  0  0  0  0 
  6  7  1  0  0  0  0 
  8  9  2  0  0  0  0 
  8 13  1  0  0  0  0 
  9 10  1  0  0  0  0 
 10 11  2  0  0  0  0 
 11 12  1  0  0  0  0 
 12 13  2  0  0  0  0 
M  END
> <CDK Fingerprint>
AgaIgAIFQAAQAAEAhAABiIAgAIEAgAACAAAGCEACAACRZAAAAABBAAQAAgAAAKAAQAAAAAAAQIKAAAAAAAABTAICBAQAEAMAAAAAIAAAAAAABAADIAgRoACgAICIACABACJAIAAAwIhQAkQIkAIAAABBgAEAABAICAACAwAA

> <ActivityOutcome_CPDBAS_Rat>
inactive

$$$$

  CDK     0721101958

 14 15  0  0  0  0  0  0  0  0999 V2000
    3.9928   -1.1581    0.0000 N   0  0  0  0  0  3  0  0  0  0  0  0
    2.6619   -1.1581    0.0000 C   0  0  0  0  0  4  0  0  0  0  0  0
    1.9964   -2.3075    0.0000 C   0  0  0  0  0  4  0  0  0  0  0  0
    0.6655   -2.3075    0.0000 C   0  0  0  0  0  4  0  0  0  0  0  0
    0.0000   -1.1581    0.0000 C   0  0  0  0  0  4  0  0  0  0  0  0
    0.6655    0.0000    0.0000 C   0  0  0  0  0  4  0  0  0  0  0  0
    1.9964    0.0000    0.0000 C   0  0  0  0  0  4  0  0  0  0  0  0
    4.6497   -2.3075    0.0000 N   0  0  0  0  0  3  0  0  0  0  0  0
    5.9806   -2.3075    0.0000 C   0  0  0  0  0  4  0  0  0  0  0  0
    6.6461   -1.1581    0.0000 C   0  0  0  0  0  4  0  0  0  0  0  0
    7.9770   -1.1581    0.0000 C   0  0  0  0  0  4  0  0  0  0  0  0
    8.6425   -2.3075    0.0000 C   0  0  0  0  0  4  0  0  0  0  0  0
    7.9770   -3.4570    0.0000 C   0  0  0  0  0  4  0  0  0  0  0  0
    6.6461   -3.4570    0.0000 C   0  0  0  0  0  4  0  0  0  0  0  0
  1  2  1  0  0  0  0 
  1  8  1  0  0  0  0 
  2  3  2  0  0  0  0 
  2  7  1  0  0  0  0 
  3  4  1  0  0  0  0 
  4  5  2  0  0  0  0 
  5  6  1  0  0  0  0 
  6  7  2  0  0  0  0 
  8  9  1  0  0  0  0 
  9 10  2  0  0  0  0 
  9 14  1  0  0  0  0 
 10 11  1  0  0  0  0 
 11 12  2  0  0  0  0 
 12 13  1  0  0  0  0 
 13 14  2  0  0  0  0 
M  END
> <CDK Fingerprint>
AIAAAAgAAAAAIAAAAAAAAABAAACAAAAAQAAAAAABBAhCAAAAYAAAAEAAAAAAAAAAAAAAAAAAAAAAQAAAAAIQAIAAABAAAAAAAAAAAAAAAAAAAAAAAAAAEAAAAAAAAAAAACEAACAAIgAAABAABgAAAAAAAAAAgAAAAAAAAAAAAxAA

> <ActivityOutcome_CPDBAS_Rat>
active

> <TD50_Rat_mmol>
0.0303

$$$$

  CDK     0721101958

  7  6  0  0  0  0  0  0  0  0999 V2000
    1.3355   -1.3355    0.0000 C   0  0  0  0  0  4  0  0  0  0  0  0
    2.6711   -1.3355    0.0000 C   0  0  0  0  0  4  0  0  0  0  0  0
    1.3355    0.0000    0.0000 F   0  0  0  0  0  1  0  0  0  0  0  0
    0.0000   -1.3355    0.0000 F   0  0  0  0  0  1  0  0  0  0  0  0
    1.3355   -2.6711    0.0000 F   0  0  0  0  0  1  0  0  0  0  0  0
    3.3140   -2.4954    0.0000 Cl  0  0  0  0  0  1  0  0  0  0  0  0
    3.3140   -0.1922    0.0000 Cl  0  0  0  0  0  1  0  0  0  0  0  0
  1  2  1  0  0  0  0 
  1  3  1  0  0  0  0 
  1  4  1  0  0  0  0 
  1  5  1  0  0  0  0 
  2  6  1  0  0  0  0 
  2  7  1  0  0  0  0 
M  END
> <CDK Fingerprint>
MAAAwAAAAAAgAAAAAAAAACAAAAAGAAAAAAAAAAAAAAEAAAAAAACAAAAAAAAAAAAAAAAAAAAAAAAAAAAAAAAAAAAAAAAAAAAAAAAAAAAAAAAAAAAAAAAAAAAAAAAAAAAA

> <ActivityOutcome_CPDBAS_Rat>
active

> <TD50_Rat_mmol>
15.5

$$$$

  CDK     0721101958

 17 18  0  0  0  0  0  0  0  0999 V2000
    2.0037   -3.6827    0.0000 O   0  0  0  0  0  2  0  0  0  0  0  0
    1.1539   -2.6601    0.0000 S   0  0  0  0  0  6  0  0  0  0  0  0
    0.2971   -3.6827    0.0000 O   0  0  0  0  0  2  0  0  0  0  0  0
    2.3008   -1.9968    0.0000 C   0  0  0  0  0  4  0  0  0  0  0  0
    2.3008   -0.6702    0.0000 C   0  0  0  0  0  4  0  0  0  0  0  0
    3.4547    0.0000    0.0000 C   0  0  0  0  0  4  0  0  0  0  0  0
    4.6086   -0.6702    0.0000 C   0  0  0  0  0  4  0  0  0  0  0  0
    4.6086   -1.9968    0.0000 C   0  0  0  0  0  4  0  0  0  0  0  0
    3.4547   -2.6601    0.0000 C   0  0  0  0  0  4  0  0  0  0  0  0
    5.7555   -2.6601    0.0000 S   0  0  0  0  0  6  0  0  0  0  0  0
    5.0922   -3.8140    0.0000 O   0  0  0  0  0  2  0  0  0  0  0  0
    6.4257   -1.5132    0.0000 O   0  0  0  0  0  2  0  0  0  0  0  0
    6.9094   -3.3303    0.0000 N   0  0  0  0  0  3  0  0  0  0  0  0
    5.7555    0.0000    0.0000 Cl  0  0  0  0  0  1  0  0  0  0  0  0
    1.1539    0.0000    0.0000 N   0  0  0  0  0  3  0  0  0  0  0  0
    0.0000   -0.6702    0.0000 C   0  0  0  0  0  4  0  0  0  0  0  0
    0.0000   -1.9968    0.0000 N   0  0  0  0  0  3  0  0  0  0  0  0
  1  2  2  0  0  0  0 
  2  3  2  0  0  0  0 
  2  4  1  0  0  0  0 
  2 17  1  0  0  0  0 
  4  5  2  0  0  0  0 
  4  9  1  0  0  0  0 
  5  6  1  0  0  0  0 
  5 15  1  0  0  0  0 
  6  7  2  0  0  0  0 
  7  8  1  0  0  0  0 
  7 14  1  0  0  0  0 
  8  9  2  0  0  0  0 
  8 10  1  0  0  0  0 
 10 11  2  0  0  0  0 
 10 12  2  0  0  0  0 
 10 13  1  0  0  0  0 
 15 16  1  0  0  0  0 
 16 17  1  0  0  0  0 
M  END
> <CDK Fingerprint>
CIAAIACQADAUIMSAAAAAChEBAAEJUEAAAAFSAKRVAgCASeRBAAACAgAQlAAAAQAgBUQAMBCCAEBKACCABcUhQAQgMAAAEQBAQAgJogkQAAAIAAqABAAAAQEAAEAoAgAgAAAAwioEABAAIBKAEAAAkCQCiKEgICABCAQkCQJUAA==

> <ActivityOutcome_CPDBAS_Rat>
inactive

$$$$

  CDK     0721101958

 26 29  0  0  0  0  0  0  0  0999 V2000
    6.9475   -3.7219    0.0000 C   0  0  0  0  0  4  0  0  0  0  0  0
    3.4833   -5.7259    0.0000 C   0  0  0  0  0  4  0  0  0  0  0  0
    8.2167   -3.3306    0.0000 C   0  0  0  0  0  4  0  0  0  0  0  0
    5.7927   -5.7259    0.0000 C   0  0  0  0  0  4  0  0  0  0  0  0
    6.9475   -5.0675    0.0000 C   0  0  0  0  0  4  0  0  0  0  0  0
    4.6285   -5.0484    0.0000 C   0  0  0  0  0  4  0  0  0  0  0  0
    3.4833   -7.0525    0.0000 C   0  0  0  0  0  4  0  0  0  0  0  0
    5.7832   -3.0634    0.0000 C   0  0  0  0  0  4  0  0  0  0  0  0
    4.6285   -3.7219    0.0000 C   0  0  0  0  0  4  0  0  0  0  0  0
    2.3381   -7.7109    0.0000 C   0  0  0  0  0  4  0  0  0  0  0  0
    8.2167   -1.9945    0.0000 C   0  0  0  0  0  4  0  0  0  0  0  0
    8.9706   -4.3803    0.0000 C   0  0  0  0  0  4  0  0  0  0  0  0
    8.2167   -5.4587    0.0000 C   0  0  0  0  0  4  0  0  0  0  0  0
    5.7927   -7.0429    0.0000 C   0  0  0  0  0  4  0  0  0  0  0  0
    2.3381   -5.0484    0.0000 C   0  0  0  0  0  4  0  0  0  0  0  0
    4.6285   -7.7109    0.0000 C   0  0  0  0  0  4  0  0  0  0  0  0
    1.1929   -7.0429    0.0000 C   0  0  0  0  0  4  0  0  0  0  0  0
    9.3619   -1.3170    0.0000 O   0  0  0  0  0  2  0  0  0  0  0  0
    0.0000   -7.6823    0.0000 O   0  0  0  0  0  2  0  0  0  0  0  0
    9.5432   -3.3783    0.0000 O   0  0  0  0  0  2  0  0  0  0  0  0
    6.9570   -2.3858    0.0000 C   0  0  0  0  0  4  0  0  0  0  0  0
    1.1929   -5.7259    0.0000 C   0  0  0  0  0  4  0  0  0  0  0  0
    3.4642   -3.0538    0.0000 O   0  0  0  0  0  2  0  0  0  0  0  0
    3.4833   -4.3803    0.0000 C   0  0  0  0  0  4  0  0  0  0  0  0
    7.0715   -1.3361    0.0000 C   0  0  0  0  0  4  0  0  0  0  0  0
    7.0715    0.0000    0.0000 O   0  0  0  0  0  2  0  0  0  0  0  0
  1  3  1  0  0  0  0 
  1  5  1  0  0  0  0 
  1  8  1  0  0  0  0 
  1 21  1  1  0  0  0 
  2  6  1  0  0  0  0 
  2  7  1  0  0  0  0 
  2 15  1  0  0  0  0 
  2 24  1  1  0  0  0 
  3 11  1  0  0  0  0 
  3 12  1  0  0  0  0 
  3 20  1  6  0  0  0 
  4  5  1  0  0  0  0 
  4 14  1  0  0  0  0 
  4  6  1  0  0  0  0 
  5 13  1  0  0  0  0 
  6  9  1  0  0  0  0 
  7 10  2  0  0  0  0 
  7 16  1  0  0  0  0 
  8  9  1  0  0  0  0 
  9 23  1  1  0  0  0 
 10 17  1  0  0  0  0 
 11 18  2  0  0  0  0 
 11 25  1  0  0  0  0 
 12 13  1  0  0  0  0 
 14 16  1  0  0  0  0 
 15 22  1  0  0  0  0 
 17 22  1  0  0  0  0 
 17 19  2  0  0  0  0 
 25 26  1  0  0  0  0 
M  END
> <CDK Fingerprint>
QAAAAAEAAAAggAIVAAQAAAAABoAEQABAAAAAQAEAAAFRCOAAAAAAAAAAACAQABAgACIAAAgQAAAAECBAQAQAAAAAAQRAAAAIABQAAAABAAAAAAAAAQAAAAAQAAAAAAAAAEAAAABAAAAAAAAAEAQBgAAAAAC4OAAAAABAVgAAIA==

> <ActivityOutcome_CPDBAS_Rat>
inactive

$$$$

  CDK     0721101958

  8  8  0  0  0  0  0  0  0  0999 V2000
    0.0000   -1.1545    0.0000 O   0  0  0  0  0  2  0  0  0  0  0  0
    1.3300   -1.1545    0.0000 C   0  0  0  0  0  4  0  0  0  0  0  0
    1.9950    0.0000    0.0000 C   0  0  0  0  0  4  0  0  0  0  0  0
    3.3250    0.0000    0.0000 C   0  0  0  0  0  4  0  0  0  0  0  0
    3.9900   -1.1545    0.0000 C   0  0  0  0  0  4  0  0  0  0  0  0
    3.3250   -2.3036    0.0000 C   0  0  0  0  0  4  0  0  0  0  0  0
    1.9950   -2.3036    0.0000 C   0  0  0  0  0  4  0  0  0  0  0  0
    5.3201   -1.1545    0.0000 O   0  0  0  0  0  2  0  0  0  0  0  0
  1  2  1  0  0  0  0 
  2  3  2  0  0  0  0 
  2  7  1  0  0  0  0 
  3  4  1  0  0  0  0 
  4  5  2  0  0  0  0 
  5  6  1  0  0  0  0 
  5  8  1  0  0  0  0 
  6  7  2  0  0  0  0 
M  END
> <CDK Fingerprint>
AgAAAAAAAAAAAAAAAAAAAAAAAAAAAAACYQAAAAAAAAAAAAAAAAAAACAAAAAAQAAAAAAAAAAAAAAAAAAAAAAAAAAAAACAAAEAAAAAAAAAAAAAAAAAACAAAAAAICAAAAAAAgAAAAAAAAAAgAAAAAAAAAAAAAAA

> <ActivityOutcome_CPDBAS_Rat>
active

> <TD50_Rat_mmol>
0.752

$$$$

  CDK     0721101958

 17 18  0  0  0  0  0  0  0  0999 V2000
    3.9896   -2.3040    0.0000 C   0  0  0  0  0  4  0  0  0  0  0  0
    2.6631   -2.3040    0.0000 C   0  0  0  0  0  4  0  0  0  0  0  0
    1.9948   -3.4610    0.0000 C   0  0  0  0  0  4  0  0  0  0  0  0
    0.6683   -3.4610    0.0000 C   0  0  0  0  0  4  0  0  0  0  0  0
    0.0000   -2.3040    0.0000 C   0  0  0  0  0  4  0  0  0  0  0  0
    0.6683   -1.1570    0.0000 C   0  0  0  0  0  4  0  0  0  0  0  0
    1.9948   -1.1570    0.0000 C   0  0  0  0  0  4  0  0  0  0  0  0
    4.6579   -1.1570    0.0000 C   0  0  0  0  0  4  0  0  0  0  0  0
    5.9844   -1.1570    0.0000 C   0  0  0  0  0  4  0  0  0  0  0  0
    6.6527   -2.3040    0.0000 C   0  0  0  0  0  4  0  0  0  0  0  0
    5.9844   -3.4610    0.0000 C   0  0  0  0  0  4  0  0  0  0  0  0
    4.6579   -3.4610    0.0000 C   0  0  0  0  0  4  0  0  0  0  0  0
    7.9793   -2.3040    0.0000 N   0  0  0  0  0  3  0  0  0  0  0  0
    8.6475   -3.4610    0.0000 C   0  0  0  0  0  4  0  0  0  0  0  0
    7.9793   -4.6080    0.0000 O   0  0  0  0  0  2  0  0  0  0  0  0
    9.9741   -3.4610    0.0000 C   0  0  0  0  0  4  0  0  0  0  0  0
    6.6527    0.0000    0.0000 O   0  0  0  0  0  2  0  0  0  0  0  0
  1  2  1  0  0  0  0 
  1  8  2  0  0  0  0 
  1 12  1  0  0  0  0 
  2  3  2  0  0  0  0 
  2  7  1  0  0  0  0 
  3  4  1  0  0  0  0 
  4  5  2  0  0  0  0 
  5  6  1  0  0  0  0 
  6  7  2  0  0  0  0 
  8  9  1  0  0  0  0 
  9 10  2  0  0  0  0 
  9 17  1  0  0  0  0 
 10 11  1  0  0  0  0 
 10 13  1  0  0  0  0 
 11 12  2  0  0  0  0 
 13 14  1  0  0  0  0 
 14 15  2  0  0  0  0 
 14 16  1  0  0  0  0 
M  END
> <CDK Fingerprint>
JSAiBAACAAAIAAAAAAAAEARBQQAAAgMEwAMAAAJhAAAAgIABAAAAAACA4AAEIAAABgBAAAAAgAQIAMCMAAAAAAEAgAAAAASAANAAAAAAAAAAAACAAAAAAIAAIABAAEAgICAAAEACQAEAAAgAAAiA0ADAEIgIAgACEAA=

> <ActivityOutcome_CPDBAS_Rat>
inactive

$$$$

  CDK     0721101958

 18 20  0  0  0  0  0  0  0  0999 V2000
    0.0000   -2.3030    0.0000 C   0  0  0  0  0  4  0  0  0  0  0  0
    1.3313   -2.3030    0.0000 C   0  0  0  0  0  4  0  0  0  0  0  0
    1.9920   -3.4593    0.0000 O   0  0  0  0  0  2  0  0  0  0  0  0
    1.9920   -1.1564    0.0000 N   0  0  0  0  0  3  0  0  0  0  0  0
    1.3313    0.0000    0.0000 O   0  0  0  0  0  2  0  0  0  0  0  0
    3.3233   -1.1564    0.0000 C   0  0  0  0  0  4  0  0  0  0  0  0
    3.9938   -2.3030    0.0000 C   0  0  0  0  0  4  0  0  0  0  0  0
    5.3251   -2.3030    0.0000 C   0  0  0  0  0  4  0  0  0  0  0  0
    5.9858   -1.1564    0.0000 C   0  0  0  0  0  4  0  0  0  0  0  0
    5.3251    0.0000    0.0000 C   0  0  0  0  0  4  0  0  0  0  0  0
    3.9938    0.0000    0.0000 C   0  0  0  0  0  4  0  0  0  0  0  0
    7.2880   -1.4284    0.0000 C   0  0  0  0  0  4  0  0  0  0  0  0
    8.3666   -0.6511    0.0000 C   0  0  0  0  0  4  0  0  0  0  0  0
    9.5812   -1.1952    0.0000 C   0  0  0  0  0  4  0  0  0  0  0  0
    9.7173   -2.5168    0.0000 C   0  0  0  0  0  4  0  0  0  0  0  0
    8.6387   -3.2942    0.0000 C   0  0  0  0  0  4  0  0  0  0  0  0
    7.4240   -2.7500    0.0000 C   0  0  0  0  0  4  0  0  0  0  0  0
    6.2093   -3.2942    0.0000 C   0  0  0  0  0  4  0  0  0  0  0  0
  1  2  1  0  0  0  0 
  2  3  2  0  0  0  0 
  2  4  1  0  0  0  0 
  4  5  1  0  0  0  0 
  4  6  1  0  0  0  0 
  6  7  2  0  0  0  0 
  6 11  1  0  0  0  0 
  7  8  1  0  0  0  0 
  8  9  2  0  0  0  0 
  8 18  1  0  0  0  0 
  9 10  1  0  0  0  0 
  9 12  1  0  0  0  0 
 10 11  2  0  0  0  0 
 12 13  2  0  0  0  0 
 12 17  1  0  0  0  0 
 13 14  1  0  0  0  0 
 14 15  2  0  0  0  0 
 15 16  1  0  0  0  0 
 16 17  2  0  0  0  0 
 17 18  1  0  0  0  0 
M  END
> <CDK Fingerprint>
AIQAEAApICIFAAgAgCgBMAkAIAIQQEFBAAAAAgzAAwgAAGEgQRAAAIAAAAZAAoCgAAQAAgCGAEABCADABAkCwAUIwACAEUAAAAAARICg0AgAEADgAKAAAIAgAgAYoAAgQEkAQCAAQABAQAJggQ0ACAQUCoDQAsEQyAgEAAIQAA==

> <ActivityOutcome_CPDBAS_Rat>
active

> <TD50_Rat_mmol>
0.00413

$$$$

  CDK     0721101958

 14 15  0  0  0  0  0  0  0  0999 V2000
    3.9879   -2.3050    0.0000 C   0  0  0  0  0  4  0  0  0  0  0  0
    2.6559   -2.3050    0.0000 C   0  0  0  0  0  4  0  0  0  0  0  0
    1.9939   -3.4535    0.0000 C   0  0  0  0  0  4  0  0  0  0  0  0
    0.6620   -3.4535    0.0000 C   0  0  0  0  0  4  0  0  0  0  0  0
    0.0000   -2.3050    0.0000 C   0  0  0  0  0  4  0  0  0  0  0  0
    0.6620   -1.1485    0.0000 C   0  0  0  0  0  4  0  0  0  0  0  0
    1.9939   -1.1485    0.0000 C   0  0  0  0  0  4  0  0  0  0  0  0
    4.6499   -1.1485    0.0000 C   0  0  0  0  0  4  0  0  0  0  0  0
    5.9818   -1.1485    0.0000 C   0  0  0  0  0  4  0  0  0  0  0  0
    6.6438   -2.3050    0.0000 C   0  0  0  0  0  4  0  0  0  0  0  0
    5.9818   -3.4535    0.0000 C   0  0  0  0  0  4  0  0  0  0  0  0
    4.6499   -3.4535    0.0000 C   0  0  0  0  0  4  0  0  0  0  0  0
    7.9757   -2.3050    0.0000 N   0  0  0  0  0  3  0  0  0  0  0  0
    6.6438    0.0000    0.0000 O   0  0  0  0  0  2  0  0  0  0  0  0
  1  2  1  0  0  0  0 
  1  8  2  0  0  0  0 
  1 12  1  0  0  0  0 
  2  3  2  0  0  0  0 
  2  7  1  0  0  0  0 
  3  4  1  0  0  0  0 
  4  5  2  0  0  0  0 
  5  6  1  0  0  0  0 
  6  7  2  0  0  0  0 
  8  9  1  0  0  0  0 
  9 10  2  0  0  0  0 
  9 14  1  0  0  0  0 
 10 11  1  0  0  0  0 
 10 13  1  0  0  0  0 
 11 12  2  0  0  0  0 
M  END
> <CDK Fingerprint>
IAQAAgAAAAAAAAAAABAAQUAAAAIDBAADAAACYQAAAICAAAAAAAAAAGAAACAAAAQAQAAAAAAAAAAAjAAAAAAAAIAAAAAAAADAAAAAAAAAAAAAgAAAAACAACAAAABAICAAAABAAkABAAAAAAAIgIAAABAICAIAAhAA

> <ActivityOutcome_CPDBAS_Rat>
inactive

$$$$

  CDK     0721101958

 17 19  0  0  0  0  0  0  0  0999 V2000
    0.0000   -4.6546    0.0000 O   0  0  0  0  0  2  0  0  0  0  0  0
    1.1504   -3.9897    0.0000 C   0  0  0  0  0  4  0  0  0  0  0  0
    2.3007   -4.6546    0.0000 C   0  0  0  0  0  4  0  0  0  0  0  0
    2.3007   -5.9845    0.0000 C   0  0  0  0  0  4  0  0  0  0  0  0
    3.4577   -6.6495    0.0000 C   0  0  0  0  0  4  0  0  0  0  0  0
    4.6081   -5.9845    0.0000 C   0  0  0  0  0  4  0  0  0  0  0  0
    4.6081   -4.6546    0.0000 C   0  0  0  0  0  4  0  0  0  0  0  0
    3.4577   -3.9897    0.0000 C   0  0  0  0  0  4  0  0  0  0  0  0
    3.4577   -2.6598    0.0000 C   0  0  0  0  0  4  0  0  0  0  0  0
    4.6081   -1.9948    0.0000 O   0  0  0  0  0  2  0  0  0  0  0  0
    2.3007   -1.9948    0.0000 C   0  0  0  0  0  4  0  0  0  0  0  0
    1.1504   -2.6598    0.0000 C   0  0  0  0  0  4  0  0  0  0  0  0
    0.0000   -1.9948    0.0000 C   0  0  0  0  0  4  0  0  0  0  0  0
    0.0000   -0.6649    0.0000 C   0  0  0  0  0  4  0  0  0  0  0  0
    1.1504    0.0000    0.0000 C   0  0  0  0  0  4  0  0  0  0  0  0
    2.3007   -0.6649    0.0000 C   0  0  0  0  0  4  0  0  0  0  0  0
    1.1504   -6.6495    0.0000 O   0  0  0  0  0  2  0  0  0  0  0  0
  1  2  2  0  0  0  0 
  2  3  1  0  0  0  0 
  2 12  1  0  0  0  0 
  3  4  2  0  0  0  0 
  3  8  1  0  0  0  0 
  4  5  1  0  0  0  0 
  4 17  1  0  0  0  0 
  5  6  2  0  0  0  0 
  6  7  1  0  0  0  0 
  7  8  2  0  0  0  0 
  8  9  1  0  0  0  0 
  9 10  2  0  0  0  0 
  9 11  1  0  0  0  0 
 11 12  2  0  0  0  0 
 11 16  1  0  0  0  0 
 12 13  1  0  0  0  0 
 13 14  2  0  0  0  0 
 14 15  1  0  0  0  0 
 15 16  2  0  0  0  0 
M  END
> <CDK Fingerprint>
CAAAAAAAAYGCAIgAABABACAAAAAAAAAAAAAARAh4AAJpAQABhIAAAAFCAAEAIAAEIAABAABAAQIQQAAAAAQGCAAABABBCAAAIAAAYoAIAAAAwACAAACAAAAACIAAIABIAEAgIAACAAAGQCAEEAAAFACAEAhBKAAAAAAAAAA=

> <ActivityOutcome_CPDBAS_Rat>
active

> <TD50_Rat_mmol>
0.417

$$$$

  CDK     0721101958

 19 20  0  0  0  0  0  0  0  0999 V2000
    6.9336   -1.6754    0.0000 N   0  0  0  0  0  3  0  0  0  0  0  0
    7.2171   -2.9771    0.0000 C   0  0  0  0  0  4  0  0  0  0  0  0
    8.4801   -3.3895    0.0000 C   0  0  0  0  0  4  0  0  0  0  0  0
    9.5627   -2.6033    0.0000 O   0  0  0  0  0  2  0  0  0  0  0  0
   10.6323   -3.3895    0.0000 C   0  0  0  0  0  4  0  0  0  0  0  0
   10.2199   -4.6525    0.0000 C   0  0  0  0  0  4  0  0  0  0  0  0
    8.8925   -4.6525    0.0000 C   0  0  0  0  0  4  0  0  0  0  0  0
   11.8953   -2.9771    0.0000 N   0  0  0  0  0  4  0  0  0  0  0  0
   12.8877   -3.8663    0.0000 O   0  0  0  0  0  2  0  0  0  0  0  0
   12.1789   -1.6754    0.0000 O   0  0  0  0  0  1  0  0  0  0  0  0
    5.6706   -1.2630    0.0000 N   0  0  0  0  0  3  0  0  0  0  0  0
    4.6009   -2.0491    0.0000 C   0  0  0  0  0  4  0  0  0  0  0  0
    4.6009   -3.3766    0.0000 O   0  0  0  0  0  2  0  0  0  0  0  0
    3.5183   -1.2630    0.0000 N   0  0  0  0  0  3  0  0  0  0  0  0
    3.9307    0.0000    0.0000 C   0  0  0  0  0  4  0  0  0  0  0  0
    5.2582    0.0000    0.0000 C   0  0  0  0  0  4  0  0  0  0  0  0
    2.2553   -1.6754    0.0000 C   0  0  0  0  0  4  0  0  0  0  0  0
    1.2630   -0.7861    0.0000 C   0  0  0  0  0  4  0  0  0  0  0  0
    0.0000   -1.1986    0.0000 O   0  0  0  0  0  2  0  0  0  0  0  0
  1  2  2  0  0  0  0 
  1 11  1  0  0  0  0 
  2  3  1  0  0  0  0 
  3  4  1  0  0  0  0 
  3  7  2  0  0  0  0 
  4  5  1  0  0  0  0 
  5  6  2  0  0  0  0 
  5  8  1  0  0  0  0 
  6  7  1  0  0  0  0 
  8  9  2  0  0  0  0 
  8 10  1  0  0  0  0 
 11 12  1  0  0  0  0 
 11 16  1  0  0  0  0 
 12 13  2  0  0  0  0 
 12 14  1  0  0  0  0 
 14 15  1  0  0  0  0 
 14 17  1  0  0  0  0 
 15 16  1  0  0  0  0 
 17 18  1  0  0  0  0 
 18 19  1  0  0  0  0 
M  CHG  1   8   1
M  CHG  1  10  -1
M  END
> <CDK Fingerprint>
DhAAMAJBICMQEEqAAeIgAEooYAAAEuVQBABQAAQgJEBAIGAgBASCABICAAEALYkggIAQAmAA4EsAAgCABIASgAAQEAJggIEAAgABUB2AgQAAA8AQChQAQIAQACBEgRciBEQgFCQEBQIAcilAkDIAAADI5ALQBUgAgAACIAMgIA==

> <ActivityOutcome_CPDBAS_Rat>
active

> <TD50_Rat_mmol>
0.0623

$$$$

  CDK     0721101958

 11 10  0  0  0  0  0  0  0  0999 V2000
    1.9929   -3.4531    0.0000 O   0  0  0  0  0  2  0  0  0  0  0  0
    2.6571   -2.3040    0.0000 C   0  0  0  0  0  4  0  0  0  0  0  0
    1.9929   -1.1490    0.0000 N   0  0  0  0  0  3  0  0  0  0  0  0
    0.6643   -1.1490    0.0000 C   0  0  0  0  0  4  0  0  0  0  0  0
    0.0000   -2.3040    0.0000 C   0  0  0  0  0  4  0  0  0  0  0  0
    0.6643   -3.4531    0.0000 O   0  0  0  0  0  2  0  0  0  0  0  0
    2.6571    0.0000    0.0000 N   0  0  0  0  0  3  0  0  0  0  0  0
    3.9917    0.0000    0.0000 O   0  0  0  0  0  2  0  0  0  0  0  0
    3.9917   -2.3040    0.0000 N   0  0  0  0  0  3  0  0  0  0  0  0
    4.6560   -3.4531    0.0000 C   0  0  0  0  0  4  0  0  0  0  0  0
    5.9845   -3.4531    0.0000 C   0  0  0  0  0  4  0  0  0  0  0  0
  1  2  2  0  0  0  0 
  2  3  1  0  0  0  0 
  2  9  1  0  0  0  0 
  3  4  1  0  0  0  0 
  3  7  1  0  0  0  0 
  4  5  1  0  0  0  0 
  5  6  1  0  0  0  0 
  7  8  2  0  0  0  0 
  9 10  1  0  0  0  0 
 10 11  1  0  0  0  0 
M  END
> <CDK Fingerprint>
CAAAAAIQAEoAAIAAAAAAAAAIAAAAAAAAAAAABAUAIGAAAAKAAAAAAAAAAQggAAEAAiAAIAAAAACAAAACgAAAAAAAAAEAAAAAAAAAgAAAAGAAAAAAAAAQAAAAAAAAAEQgAAAAAAAAAAAAAAAAAABAAABABAAAgAAAAAMAAA==

> <ActivityOutcome_CPDBAS_Rat>
active

> <TD50_Rat_mmol>
0.00349

$$$$

  CDK     0721101958

  9  8  0  0  0  0  0  0  0  0999 V2000
    1.1520    0.0000    0.0000 O   0  0  0  0  0  2  0  0  0  0  0  0
    2.3040   -0.6635    0.0000 C   0  0  0  0  0  4  0  0  0  0  0  0
    2.3040   -1.9953    0.0000 N   0  0  0  0  0  3  0  0  0  0  0  0
    3.4560   -2.6588    0.0000 C   0  0  0  0  0  4  0  0  0  0  0  0
    4.6080   -1.9953    0.0000 C   0  0  0  0  0  4  0  0  0  0  0  0
    4.6080   -0.6635    0.0000 O   0  0  0  0  0  2  0  0  0  0  0  0
    1.1520   -2.6588    0.0000 N   0  0  0  0  0  3  0  0  0  0  0  0
    0.0000   -1.9953    0.0000 O   0  0  0  0  0  2  0  0  0  0  0  0
    3.4560    0.0000    0.0000 N   0  0  0  0  0  3  0  0  0  0  0  0
  1  2  2  0  0  0  0 
  2  3  1  0  0  0  0 
  2  9  1  0  0  0  0 
  3  4  1  0  0  0  0 
  3  7  1  0  0  0  0 
  4  5  1  0  0  0  0 
  5  6  1  0  0  0  0 
  7  8  2  0  0  0  0 
M  END
> <CDK Fingerprint>
AhAASgAAgAAAAAAAAAgAAAAAAAAAAAAEBQAAYAAAAoAAAAAAAAABCCAAAQAAIAAAAAAAAIAAAAKAAAAAAAAAAAAAAAAAAACAAAAAYAAAAAAAABAAAAAAAAAARCAAAAAAAAAAAAAAAAAAAAAAAEAEAAAAAAAAAwAA

> <ActivityOutcome_CPDBAS_Rat>
active

> <TD50_Rat_mmol>
0.00183

$$$$

  CDK     0721101958

 22 24  0  0  0  0  0  0  0  0999 V2000
    6.5118   -4.6570    0.0000 N   0  0  0  0  0  3  0  0  0  0  0  0
    5.3650   -3.9889    0.0000 C   0  0  0  0  0  4  0  0  0  0  0  0
    5.3650   -2.6526    0.0000 N   0  0  0  0  0  3  0  0  0  0  0  0
    6.5118   -1.9944    0.0000 C   0  0  0  0  0  4  0  0  0  0  0  0
    7.6686   -2.6526    0.0000 C   0  0  0  0  0  4  0  0  0  0  0  0
    8.8154   -1.9944    0.0000 C   0  0  0  0  0  4  0  0  0  0  0  0
    9.9721   -2.6526    0.0000 C   0  0  0  0  0  4  0  0  0  0  0  0
    9.9721   -3.9889    0.0000 C   0  0  0  0  0  4  0  0  0  0  0  0
    8.8154   -4.6570    0.0000 C   0  0  0  0  0  4  0  0  0  0  0  0
    7.6686   -3.9889    0.0000 C   0  0  0  0  0  4  0  0  0  0  0  0
    6.5118   -0.6582    0.0000 N   0  0  0  0  0  3  0  0  0  0  0  0
    5.3650    0.0000    0.0000 C   0  0  0  0  0  4  0  0  0  0  0  0
    4.2082   -0.6582    0.0000 C   0  0  0  0  0  4  0  0  0  0  0  0
    3.0615    0.0000    0.0000 O   0  0  0  0  0  2  0  0  0  0  0  0
    4.2082   -4.6570    0.0000 C   0  0  0  0  0  4  0  0  0  0  0  0
    4.0686   -5.9733    0.0000 C   0  0  0  0  0  4  0  0  0  0  0  0
    2.7723   -6.2525    0.0000 C   0  0  0  0  0  4  0  0  0  0  0  0
    2.1041   -5.0958    0.0000 C   0  0  0  0  0  4  0  0  0  0  0  0
    2.9916   -4.1085    0.0000 S   0  0  0  0  0  2  0  0  0  0  0  0
    0.7778   -4.9661    0.0000 N   0  0  0  0  0  4  0  0  0  0  0  0
    0.0000   -6.0332    0.0000 O   0  0  0  0  0  2  0  0  0  0  0  0
    0.2393   -3.7495    0.0000 O   0  0  0  0  0  1  0  0  0  0  0  0
  1  2  1  0  0  0  0 
  1 10  2  0  0  0  0 
  2  3  2  0  0  0  0 
  2 15  1  0  0  0  0 
  3  4  1  0  0  0  0 
  4  5  2  0  0  0  0 
  4 11  1  0  0  0  0 
  5  6  1  0  0  0  0 
  5 10  1  0  0  0  0 
  6  7  2  0  0  0  0 
  7  8  1  0  0  0  0 
  8  9  2  0  0  0  0 
  9 10  1  0  0  0  0 
 11 12  1  0  0  0  0 
 12 13  1  0  0  0  0 
 13 14  1  0  0  0  0 
 15 16  2  0  0  0  0 
 15 19  1  0  0  0  0 
 16 17  1  0  0  0  0 
 17 18  2  0  0  0  0 
 18 19  1  0  0  0  0 
 18 20  1  0  0  0  0 
 20 21  2  0  0  0  0 
 20 22  1  0  0  0  0 
M  CHG  1  20   1
M  CHG  1  22  -1
M  END
> <CDK Fingerprint>
IAVAQxiSKgVigFIOAAChKQAIACAAgbhBhQAAQAAUSCYQGYFiCQQAIIGMIAAAIAqIIITEAAogCoLDAYAMgI0JAGHIwEAEESQMgFkABICAoNAAAEDAgAEAHCSCMLRIUICMoEAUosQgCRDABCAiQIChQAAEEFKgASAiBIASlAaKmEI=

> <ActivityOutcome_CPDBAS_Rat>
active

> <TD50_Rat_mmol>
0.00591

$$$$

  CDK     0721101958

 10  9  0  0  0  0  0  0  0  0999 V2000
    4.6062   -2.6601    0.0000 O   0  0  0  0  0  2  0  0  0  0  0  0
    3.4546   -1.9979    0.0000 C   0  0  0  0  0  4  0  0  0  0  0  0
    3.4546   -0.6679    0.0000 N   0  0  0  0  0  3  0  0  0  0  0  0
    2.3031    0.0000    0.0000 C   0  0  0  0  0  4  0  0  0  0  0  0
    1.1515   -0.6679    0.0000 C   0  0  0  0  0  4  0  0  0  0  0  0
    1.1515   -1.9979    0.0000 C   0  0  0  0  0  4  0  0  0  0  0  0
    0.0000   -2.6601    0.0000 O   0  0  0  0  0  2  0  0  0  0  0  0
    4.6062    0.0000    0.0000 N   0  0  0  0  0  3  0  0  0  0  0  0
    5.7577   -0.6679    0.0000 O   0  0  0  0  0  2  0  0  0  0  0  0
    2.3031   -2.6601    0.0000 N   0  0  0  0  0  3  0  0  0  0  0  0
  1  2  2  0  0  0  0 
  2  3  1  0  0  0  0 
  2 10  1  0  0  0  0 
  3  4  1  0  0  0  0 
  3  8  1  0  0  0  0 
  4  5  1  0  0  0  0 
  5  6  1  0  0  0  0 
  6  7  1  0  0  0  0 
  8  9  2  0  0  0  0 
M  END
> <CDK Fingerprint>
AhAASgABgAAAEAAAABAAAAAAAAAAAAAEBQAAYAAAAoAAAAAAAAABECAAQQACAAAAAAAAAMIAAAKAAAAAAAAAAAAAAAAAAACAAAEACiAAAAAAABAAAAAAAAAARCAAAAAIAAAAAAAAAAAAAAAAAEBAAAAAAAAAAwAA

> <ActivityOutcome_CPDBAS_Rat>
active

> <TD50_Rat_mmol>
0.00665

$$$$

  CDK     0721101958

 11 12  0  0  0  0  0  0  0  0999 V2000
    3.4555    0.0000    0.0000 O   0  0  0  0  0  2  0  0  0  0  0  0
    3.4555   -1.3315    0.0000 C   0  0  0  0  0  4  0  0  0  0  0  0
    4.6073   -1.9950    0.0000 C   0  0  0  0  0  4  0  0  0  0  0  0
    4.6073   -3.3265    0.0000 C   0  0  0  0  0  4  0  0  0  0  0  0
    3.4555   -3.9899    0.0000 C   0  0  0  0  0  4  0  0  0  0  0  0
    2.3037   -3.3265    0.0000 C   0  0  0  0  0  4  0  0  0  0  0  0
    1.1518   -3.9899    0.0000 C   0  0  0  0  0  4  0  0  0  0  0  0
    0.0000   -3.3265    0.0000 C   0  0  0  0  0  4  0  0  0  0  0  0
    0.0000   -1.9950    0.0000 C   0  0  0  0  0  4  0  0  0  0  0  0
    1.1518   -1.3315    0.0000 N   0  0  0  0  0  3  0  0  0  0  0  0
    2.3037   -1.9950    0.0000 C   0  0  0  0  0  4  0  0  0  0  0  0
  1  2  1  0  0  0  0 
  2  3  2  0  0  0  0 
  2 11  1  0  0  0  0 
  3  4  1  0  0  0  0 
  4  5  2  0  0  0  0 
  5  6  1  0  0  0  0 
  6  7  2  0  0  0  0 
  6 11  1  0  0  0  0 
  7  8  1  0  0  0  0 
  8  9  2  0  0  0  0 
  9 10  1  0  0  0  0 
 10 11  2  0  0  0  0 
M  END
> <CDK Fingerprint>
AgGQAgAAgAAOAgAAAAAAAAQAAAAAAAAAAAAACAAAAAJhAABAAAAAAAAAAAAIAAAAoAAAAABAAAAAAJAAAAEAAAAAAIAAAIgAAAgAAIgIgAAAgAAAAAAAIAAAAAAAIEAIAQAgKIEAAAACAQAAAAAAAQCAAAACQAAAAAAAAAA=

> <ActivityOutcome_CPDBAS_Rat>
inactive

$$$$

  CDK     0721101958

 13 14  0  0  0  0  0  0  0  0999 V2000
    6.0944   -3.4555    0.0000 O   0  0  0  0  0  2  0  0  0  0  0  0
    5.4301   -2.3037    0.0000 C   0  0  0  0  0  4  0  0  0  0  0  0
    6.0944   -1.1518    0.0000 C   0  0  0  0  0  4  0  0  0  0  0  0
    5.4301    0.0000    0.0000 C   0  0  0  0  0  4  0  0  0  0  0  0
    4.1016   -2.3037    0.0000 C   0  0  0  0  0  4  0  0  0  0  0  0
    3.4373   -3.4555    0.0000 C   0  0  0  0  0  4  0  0  0  0  0  0
    2.1026   -3.4555    0.0000 C   0  0  0  0  0  4  0  0  0  0  0  0
    1.4383   -2.3037    0.0000 C   0  0  0  0  0  4  0  0  0  0  0  0
    0.1402   -2.0294    0.0000 O   0  0  0  0  0  2  0  0  0  0  0  0
    0.0000   -0.7070    0.0000 C   0  0  0  0  0  4  0  0  0  0  0  0
    1.2128   -0.1645    0.0000 O   0  0  0  0  0  2  0  0  0  0  0  0
    2.1026   -1.1518    0.0000 C   0  0  0  0  0  4  0  0  0  0  0  0
    3.4373   -1.1518    0.0000 C   0  0  0  0  0  4  0  0  0  0  0  0
  1  2  1  0  0  0  0 
  2  3  1  0  0  0  0 
  2  5  1  0  0  0  0 
  3  4  2  0  0  0  0 
  5  6  2  0  0  0  0 
  5 13  1  0  0  0  0 
  6  7  1  0  0  0  0 
  7  8  2  0  0  0  0 
  8  9  1  0  0  0  0 
  8 12  1  0  0  0  0 
  9 10  1  0  0  0  0 
 10 11  1  0  0  0  0 
 11 12  1  0  0  0  0 
 12 13  2  0  0  0  0 
M  END
> <CDK Fingerprint>
QAIACAAABEAIAIIAAAAAAAAAAigFAACAAAIAQAACCIgkAmEAAASAgAAIAAAAAAAgBOQgQBAQIEAAACBAAAAAAAYYAAAIAEIAAAIEAAAAgAAQAAAAAAAAAJARAAAAgIAgAArAQCAkYAMQAAJMCAQKgoAUAIAAIACAAaABICAAAA==

> <ActivityOutcome_CPDBAS_Rat>
active

> <TD50_Rat_mmol>
0.103

$$$$

  CDK     0721101958

 15 15  0  0  0  0  0  0  0  0999 V2000
    2.3021    0.0000    0.0000 C   0  0  0  0  0  4  0  0  0  0  0  0
    2.3021   -1.3260    0.0000 C   0  0  0  0  0  4  0  0  0  0  0  0
    3.4531   -1.9890    0.0000 C   0  0  0  0  0  4  0  0  0  0  0  0
    4.6041   -1.3260    0.0000 C   0  0  0  0  0  4  0  0  0  0  0  0
    5.7552   -1.9890    0.0000 C   0  0  0  0  0  4  0  0  0  0  0  0
    5.7552   -3.3242    0.0000 C   0  0  0  0  0  4  0  0  0  0  0  0
    4.6041   -3.9872    0.0000 C   0  0  0  0  0  4  0  0  0  0  0  0
    3.4531   -3.3242    0.0000 C   0  0  0  0  0  4  0  0  0  0  0  0
    6.9062   -3.9872    0.0000 C   0  0  0  0  0  4  0  0  0  0  0  0
    8.0572   -3.3242    0.0000 C   0  0  0  0  0  4  0  0  0  0  0  0
    9.2083   -3.9872    0.0000 C   0  0  0  0  0  4  0  0  0  0  0  0
    8.0572   -1.9890    0.0000 C   0  0  0  0  0  4  0  0  0  0  0  0
    1.1510   -1.9890    0.0000 C   0  0  0  0  0  4  0  0  0  0  0  0
    1.1510   -3.3242    0.0000 O   0  0  0  0  0  2  0  0  0  0  0  0
    0.0000   -1.3260    0.0000 O   0  0  0  0  0  2  0  0  0  0  0  0
  1  2  1  0  0  0  0 
  2  3  1  0  0  0  0 
  2 13  1  0  0  0  0 
  3  4  2  0  0  0  0 
  3  8  1  0  0  0  0 
  4  5  1  0  0  0  0 
  5  6  2  0  0  0  0 
  6  7  1  0  0  0  0 
  6  9  1  0  0  0  0 
  7  8  2  0  0  0  0 
  9 10  1  0  0  0  0 
 10 11  1  0  0  0  0 
 10 12  1  0  0  0  0 
 13 14  2  0  0  0  0 
 13 15  1  0  0  0  0 
M  END
> <CDK Fingerprint>
EiIAAAAACAAAAAAAAAAEAAAAAAAACAAAYAAAAIAIAAAAAAAAECAAAAAAAAAAQAAAAFAAAAAAHAggAAAAAAQAEBgAAAQQAAAAAAAAAAAAgBAAAAKEACAAQABAIAAAAAAAAkAQBAEAABwAgFAABAAAAAAgAEAA

> <ActivityOutcome_CPDBAS_Rat>
inactive

$$$$

  CDK     0721101958

 19 20  0  0  0  0  0  0  0  0999 V2000
    4.6481   -4.6049    0.0000 C   0  0  0  0  0  4  0  0  0  0  0  0
    3.9915   -3.4558    0.0000 C   0  0  0  0  0  4  0  0  0  0  0  0
    4.6481   -2.2981    0.0000 C   0  0  0  0  0  4  0  0  0  0  0  0
    5.9785   -2.2981    0.0000 N   0  0  0  0  0  3  0  0  0  0  0  0
    6.6438   -1.1491    0.0000 C   0  0  0  0  0  4  0  0  0  0  0  0
    7.9743   -1.1491    0.0000 C   0  0  0  0  0  4  0  0  0  0  0  0
    8.6395    0.0000    0.0000 O   0  0  0  0  0  2  0  0  0  0  0  0
    8.6395   -2.2981    0.0000 N   0  0  0  0  0  3  0  0  0  0  0  0
    7.9743   -3.4558    0.0000 C   0  0  0  0  0  4  0  0  0  0  0  0
    8.6395   -4.6049    0.0000 O   0  0  0  0  0  2  0  0  0  0  0  0
    6.6438   -3.4558    0.0000 C   0  0  0  0  0  4  0  0  0  0  0  0
    2.6610   -3.4558    0.0000 N   0  0  0  0  0  3  0  0  0  0  0  0
    1.9957   -4.6049    0.0000 C   0  0  0  0  0  4  0  0  0  0  0  0
    0.6652   -4.6049    0.0000 C   0  0  0  0  0  4  0  0  0  0  0  0
    0.0000   -5.7539    0.0000 O   0  0  0  0  0  2  0  0  0  0  0  0
    0.0000   -3.4558    0.0000 N   0  0  0  0  0  3  0  0  0  0  0  0
    0.6652   -2.2981    0.0000 C   0  0  0  0  0  4  0  0  0  0  0  0
    0.0000   -1.1491    0.0000 O   0  0  0  0  0  2  0  0  0  0  0  0
    1.9957   -2.2981    0.0000 C   0  0  0  0  0  4  0  0  0  0  0  0
  1  2  1  0  0  0  0 
  2  3  1  0  0  0  0 
  2 12  1  0  0  0  0 
  3  4  1  0  0  0  0 
  4  5  1  0  0  0  0 
  4 11  1  0  0  0  0 
  5  6  1  0  0  0  0 
  6  7  2  0  0  0  0 
  6  8  1  0  0  0  0 
  8  9  1  0  0  0  0 
  9 10  2  0  0  0  0 
  9 11  1  0  0  0  0 
 12 13  1  0  0  0  0 
 12 19  1  0  0  0  0 
 13 14  1  0  0  0  0 
 14 15  2  0  0  0  0 
 14 16  1  0  0  0  0 
 16 17  1  0  0  0  0 
 17 18  2  0  0  0  0 
 17 19  1  0  0  0  0 
M  END
> <CDK Fingerprint>
EAAAEAAAAgAAAgABEAAAAQAAAAASAIAAAAAAAAAAAAAAYAAABAAAAFBAAAABAGAAEBAAQAAAAAAAAMAAAACAAABAAAAAgEAAAAAAAACAAAAAACAAAAAAAABAAAAAFAAAQAAAAAAAEUAgAAAAAACAAABAAFAAAAAAAAAAAgAA

> <ActivityOutcome_CPDBAS_Rat>
active

> <TD50_Rat_mmol>
0.0399

$$$$

  CDK     0721101958

 21 21  0  0  0  0  0  0  0  0999 V2000
    5.7748   -2.2334    0.0000 N   0  0  0  0  0  3  0  0  0  0  0  0
    3.5255   -1.7548    0.0000 N   0  0  0  0  0  3  0  0  0  0  0  0
    0.0000   -1.6910    0.0000 F   0  0  0  0  0  1  0  0  0  0  0  0
    1.6750   -2.5364    0.0000 F   0  0  0  0  0  1  0  0  0  0  0  0
    1.2762   -1.2602    0.0000 C   0  0  0  0  0  4  0  0  0  0  0  0
    2.5364   -0.8614    0.0000 C   0  0  0  0  0  4  0  0  0  0  0  0
    0.8455    0.0000    0.0000 F   0  0  0  0  0  1  0  0  0  0  0  0
    4.7857   -1.3400    0.0000 C   0  0  0  0  0  4  0  0  0  0  0  0
    5.0569   -0.0479    0.0000 N   0  0  0  0  0  3  0  0  0  0  0  0
    8.1198   -2.6003    0.0000 N   0  0  0  0  0  3  0  0  0  0  0  0
    7.0351   -1.8186    0.0000 C   0  0  0  0  0  4  0  0  0  0  0  0
    9.1886   -1.8186    0.0000 N   0  0  0  0  0  3  0  0  0  0  0  0
    7.4498   -0.5583    0.0000 C   0  0  0  0  0  4  0  0  0  0  0  0
    8.7739   -0.5583    0.0000 C   0  0  0  0  0  4  0  0  0  0  0  0
   10.4489   -2.2334    0.0000 C   0  0  0  0  0  4  0  0  0  0  0  0
   11.4539   -1.3400    0.0000 C   0  0  0  0  0  4  0  0  0  0  0  0
   12.7141   -1.7548    0.0000 C   0  0  0  0  0  4  0  0  0  0  0  0
   13.6872   -0.8614    0.0000 C   0  0  0  0  0  4  0  0  0  0  0  0
   14.9634   -1.2602    0.0000 C   0  0  0  0  0  4  0  0  0  0  0  0
   15.2346   -2.5684    0.0000 N   0  0  0  0  0  3  0  0  0  0  0  0
   15.9525   -0.3829    0.0000 O   0  0  0  0  0  2  0  0  0  0  0  0
  1  8  1  0  0  0  0 
  1 11  1  0  0  0  0 
  2  6  1  0  0  0  0 
  2  8  1  0  0  0  0 
  3  5  1  0  0  0  0 
  4  5  1  0  0  0  0 
  5  6  1  0  0  0  0 
  5  7  1  0  0  0  0 
  8  9  2  0  0  0  0 
 10 11  2  0  0  0  0 
 10 12  1  0  0  0  0 
 11 13  1  0  0  0  0 
 12 14  1  0  0  0  0 
 12 15  1  0  0  0  0 
 13 14  2  0  0  0  0 
 15 16  1  0  0  0  0 
 16 17  1  0  0  0  0 
 17 18  1  0  0  0  0 
 18 19  1  0  0  0  0 
 19 20  1  0  0  0  0 
 19 21  2  0  0  0  0 
M  END
> <CDK Fingerprint>
EARAIoCISCSiEAJMAVEgggAAAAkAEACAAAACBBAOwAA5EQRsCAAAoCAAAAkAAEEAZYJgACUQQlDQPAAgwJAAkEAAEAwIIBBBCAAgESBMyIAAAMSCIBEAAAAAEAAEAgCACAhAgAYhA0QEAgOEABEIQQBAQAAEWAggAAIREAICUAA=

> <ActivityOutcome_CPDBAS_Rat>
active

> <TD50_Rat_mmol>
3.82

$$$$

  CDK     0721101958

 19 21  0  0  0  0  0  0  0  0999 V2000
    7.1239   -0.3699    0.0000 C   0  0  0  0  0  4  0  0  0  0  0  0
    8.2020   -1.1521    0.0000 C   0  0  0  0  0  4  0  0  0  0  0  0
    8.8678    0.0000    0.0000 C   0  0  0  0  0  4  0  0  0  0  0  0
    9.4174   -1.6911    0.0000 C   0  0  0  0  0  4  0  0  0  0  0  0
   10.5695   -1.0252    0.0000 O   0  0  0  0  0  2  0  0  0  0  0  0
    9.2800   -3.0123    0.0000 N   0  0  0  0  0  3  0  0  0  0  0  0
    7.9800   -3.2871    0.0000 C   0  0  0  0  0  4  0  0  0  0  0  0
    7.3141   -4.4392    0.0000 C   0  0  0  0  0  4  0  0  0  0  0  0
    5.9824   -4.4392    0.0000 C   0  0  0  0  0  4  0  0  0  0  0  0
    5.3165   -3.2871    0.0000 C   0  0  0  0  0  4  0  0  0  0  0  0
    5.9824   -2.1350    0.0000 C   0  0  0  0  0  4  0  0  0  0  0  0
    7.3141   -2.1350    0.0000 C   0  0  0  0  0  4  0  0  0  0  0  0
    3.9847   -3.2871    0.0000 C   0  0  0  0  0  4  0  0  0  0  0  0
    3.3294   -4.4392    0.0000 N   0  0  0  0  0  3  0  0  0  0  0  0
    1.9976   -4.4392    0.0000 N   0  0  0  0  0  3  0  0  0  0  0  0
    1.3318   -3.2871    0.0000 C   0  0  0  0  0  4  0  0  0  0  0  0
    0.0000   -3.2871    0.0000 O   0  0  0  0  0  2  0  0  0  0  0  0
    1.9976   -2.1350    0.0000 C   0  0  0  0  0  4  0  0  0  0  0  0
    3.3294   -2.1350    0.0000 C   0  0  0  0  0  4  0  0  0  0  0  0
  1  2  1  0  0  0  0 
  2  3  1  0  0  0  0 
  2  4  1  0  0  0  0 
  2 12  1  0  0  0  0 
  4  5  2  0  0  0  0 
  4  6  1  0  0  0  0 
  6  7  1  0  0  0  0 
  7  8  1  0  0  0  0 
  7 12  2  0  0  0  0 
  8  9  2  0  0  0  0 
  9 10  1  0  0  0  0 
 10 11  2  0  0  0  0 
 10 13  1  0  0  0  0 
 11 12  1  0  0  0  0 
 13 14  2  0  0  0  0 
 13 19  1  0  0  0  0 
 14 15  1  0  0  0  0 
 15 16  1  0  0  0  0 
 16 17  2  0  0  0  0 
 16 18  1  0  0  0  0 
 18 19  1  0  0  0  0 
M  END
> <CDK Fingerprint>
ApAAEBRBsCMIAFoCA8g2EAggAMAAAWlBCwiARBTEdkkBIHBQAAoIAAIAAAAAAJDwgiRAAQICBEJABiDQBIATyIQcIIAAEUIEABIARoMAkAAABUAhCCiEgYQQwAAggAAhQEIiQCUDCSAAACtAECRBIAFcIJJUAMQAgIBMIAN4RA==

> <ActivityOutcome_CPDBAS_Rat>
active

> <TD50_Rat_mmol>
0.00781

$$$$

  CDK     0721101958

 25 27  0  0  0  0  0  0  0  0999 V2000
    7.2522   -3.4100    0.0000 C   0  0  0  0  0  4  0  0  0  0  0  0
    6.0995   -4.0704    0.0000 C   0  0  0  0  0  4  0  0  0  0  0  0
    4.8868   -3.5301    0.0000 C   0  0  0  0  0  4  0  0  0  0  0  0
    3.9863   -4.5266    0.0000 C   0  0  0  0  0  4  0  0  0  0  0  0
    4.6587   -5.6793    0.0000 C   0  0  0  0  0  4  0  0  0  0  0  0
    3.9863   -6.8200    0.0000 C   0  0  0  0  0  4  0  0  0  0  0  0
    2.6655   -6.8200    0.0000 C   0  0  0  0  0  4  0  0  0  0  0  0
    1.9932   -5.6793    0.0000 C   0  0  0  0  0  4  0  0  0  0  0  0
    2.6655   -4.5266    0.0000 C   0  0  0  0  0  4  0  0  0  0  0  0
    0.6604   -5.6793    0.0000 O   0  0  0  0  0  2  0  0  0  0  0  0
    0.0000   -6.8200    0.0000 C   0  0  0  0  0  4  0  0  0  0  0  0
    5.9555   -5.3911    0.0000 N   0  0  0  0  0  3  0  0  0  0  0  0
    6.9520   -6.2917    0.0000 C   0  0  0  0  0  4  0  0  0  0  0  0
    6.6639   -7.5884    0.0000 O   0  0  0  0  0  2  0  0  0  0  0  0
    8.2128   -5.8714    0.0000 C   0  0  0  0  0  4  0  0  0  0  0  0
    8.4889   -4.5747    0.0000 C   0  0  0  0  0  4  0  0  0  0  0  0
    9.7497   -4.1664    0.0000 C   0  0  0  0  0  4  0  0  0  0  0  0
   10.7462   -5.0549    0.0000 C   0  0  0  0  0  4  0  0  0  0  0  0
   10.4701   -6.3517    0.0000 C   0  0  0  0  0  4  0  0  0  0  0  0
    9.1973   -6.7719    0.0000 C   0  0  0  0  0  4  0  0  0  0  0  0
   12.0070   -4.6467    0.0000 Cl  0  0  0  0  0  1  0  0  0  0  0  0
    4.5987   -2.2333    0.0000 C   0  0  0  0  0  4  0  0  0  0  0  0
    5.5472   -1.2968    0.0000 C   0  0  0  0  0  4  0  0  0  0  0  0
    5.1990    0.0000    0.0000 O   0  0  0  0  0  2  0  0  0  0  0  0
    6.8320   -1.6329    0.0000 O   0  0  0  0  0  2  0  0  0  0  0  0
  1  2  1  0  0  0  0 
  2  3  2  0  0  0  0 
  2 12  1  0  0  0  0 
  3  4  1  0  0  0  0 
  3 22  1  0  0  0  0 
  4  5  2  0  0  0  0 
  4  9  1  0  0  0  0 
  5  6  1  0  0  0  0 
  5 12  1  0  0  0  0 
  6  7  2  0  0  0  0 
  7  8  1  0  0  0  0 
  8  9  2  0  0  0  0 
  8 10  1  0  0  0  0 
 10 11  1  0  0  0  0 
 12 13  1  0  0  0  0 
 13 14  2  0  0  0  0 
 13 15  1  0  0  0  0 
 15 16  2  0  0  0  0 
 15 20  1  0  0  0  0 
 16 17  1  0  0  0  0 
 17 18  2  0  0  0  0 
 18 19  1  0  0  0  0 
 18 21  1  0  0  0  0 
 19 20  2  0  0  0  0 
 22 23  1  0  0  0  0 
 23 24  2  0  0  0  0 
 23 25  1  0  0  0  0 
M  END
> <CDK Fingerprint>
BOAQQBAgACBiGJISIgAoAICogoOIBEFNqQAgAwQcwG4qGAbpyEQE1MkgABAiAAWS4AAENCACGoVQBCgg4MQEqeAWmAQEAAUQBBACBCagEpIkAQhCEBAsAhOJEBUAEoGE4ABAEMUgpCFDABErwhjsIUDkH4iMUhx0AKhSQABqGAQ=

> <ActivityOutcome_CPDBAS_Rat>
active

> <TD50_Rat_mmol>
0.00321

$$$$

  CDK     0721101958

  5  4  0  0  0  0  0  0  0  0999 V2000
    3.4567   -1.9945    0.0000 N   0  0  0  0  0  3  0  0  0  0  0  0
    2.3056   -1.3308    0.0000 C   0  0  0  0  0  4  0  0  0  0  0  0
    2.3056    0.0000    0.0000 O   0  0  0  0  0  2  0  0  0  0  0  0
    1.1511   -1.9945    0.0000 C   0  0  0  0  0  4  0  0  0  0  0  0
    0.0000   -1.3308    0.0000 I   0  0  0  0  0  1  0  0  0  0  0  0
  1  2  1  0  0  0  0 
  2  3  2  0  0  0  0 
  2  4  1  0  0  0  0 
  4  5  1  0  0  0  0 
M  END
> <CDK Fingerprint>
AgAAAAABAAAACAAAAAAAAAAAAAAAAAAAAAAAYAAAAAAAAAAAAAAAACAAAAAAAAAAAAAAAAAAAAAAAAAAAAAAAAAAAAAAAAAAAAAAAAAAAAAAAAAAAAAAAAAAQAEAAAAAAAAAAAAAAAEAAAAAAFAAAAAAAAAAAgAA

> <ActivityOutcome_CPDBAS_Rat>
inactive

$$$$

  CDK     0721101958

  4  3  0  0  0  0  0  0  0  0999 V2000
    1.9950    0.0000    0.0000 I   0  0  0  0  0  1  0  0  0  0  0  0
    1.3292   -1.1518    0.0000 C   0  0  0  0  0  4  0  0  0  0  0  0
    1.9950   -2.3037    0.0000 I   0  0  0  0  0  1  0  0  0  0  0  0
    0.0000   -1.1518    0.0000 I   0  0  0  0  0  1  0  0  0  0  0  0
  1  2  1  0  0  0  0 
  2  3  1  0  0  0  0 
  2  4  1  0  0  0  0 
M  END
> <CDK Fingerprint>
CAAAAAAAAAAAAAAAAAAAAAAAYAAAAAAAAAAAAAAAAAAAAAAAAAAAAAAAAAAAAAAAAAAAAAAAAAAAAAAAAAAAAAAAAAAAAAAAAAAAAAAAAAAAAAEAAAAAAAAAAAAAAAAAAAAAAAAAAAAAAAAAAAAA

> <ActivityOutcome_CPDBAS_Rat>
inactive

$$$$

  CDK     0721101958

 15 17  0  0  0  0  0  0  0  0999 V2000
    0.3043   -0.5362    0.0000 C   0  0  0  0  0  4  0  0  0  0  0  0
    1.2899   -1.4275    0.0000 N   0  0  0  0  0  3  0  0  0  0  0  0
    2.5942   -1.1522    0.0000 C   0  0  0  0  0  4  0  0  0  0  0  0
    3.2536   -2.3043    0.0000 C   0  0  0  0  0  4  0  0  0  0  0  0
    4.5869   -2.3043    0.0000 C   0  0  0  0  0  4  0  0  0  0  0  0
    5.2536   -1.1522    0.0000 C   0  0  0  0  0  4  0  0  0  0  0  0
    4.5869    0.0000    0.0000 C   0  0  0  0  0  4  0  0  0  0  0  0
    3.2536    0.0000    0.0000 C   0  0  0  0  0  4  0  0  0  0  0  0
    6.5797   -1.1522    0.0000 N   0  0  0  0  0  3  0  0  0  0  0  0
    7.2464   -2.3043    0.0000 C   0  0  0  0  0  4  0  0  0  0  0  0
    6.5797   -3.4565    0.0000 C   0  0  0  0  0  4  0  0  0  0  0  0
    5.2536   -3.4565    0.0000 C   0  0  0  0  0  4  0  0  0  0  0  0
    2.3696   -3.2898    0.0000 N   0  0  0  0  0  3  0  0  0  0  0  0
    1.1522   -2.7536    0.0000 C   0  0  0  0  0  4  0  0  0  0  0  0
    0.0000   -3.4203    0.0000 N   0  0  0  0  0  3  0  0  0  0  0  0
  1  2  1  0  0  0  0 
  2  3  1  0  0  0  0 
  2 14  1  0  0  0  0 
  3  4  2  0  0  0  0 
  3  8  1  0  0  0  0 
  4  5  1  0  0  0  0 
  4 13  1  0  0  0  0 
  5  6  2  0  0  0  0 
  5 12  1  0  0  0  0 
  6  7  1  0  0  0  0 
  6  9  1  0  0  0  0 
  7  8  2  0  0  0  0 
  9 10  2  0  0  0  0 
 10 11  1  0  0  0  0 
 11 12  2  0  0  0  0 
 13 14  2  0  0  0  0 
 14 15  1  0  0  0  0 
M  END
> <CDK Fingerprint>
QAKhkaIEAICSLAYDIAAAAAAAAIAAIAAAAAAAAAgAAAAQ4AAAQKwAoAAAQQDgTAAAAAAgAAAAwCAAAAiQAACDAAAAAACgAAAAAQQAQiAAAuAAgLQBAAEkEDAAQABBACBAABEEIAiBQCTAAgEEAYAABAAQgAgACkAAAAAAAgFC

> <ActivityOutcome_CPDBAS_Rat>
active

> <TD50_Rat_mmol>
0.0041

$$$$

  CDK     0721101958

 26 28  0  0  0  0  0  0  0  0999 V2000
    5.6788   -1.5774    0.0000 C   0  0  0  0  0  4  0  0  0  0  0  0
    2.2265   -3.6056    0.0000 C   0  0  0  0  0  4  0  0  0  0  0  0
    3.3352   -4.2726    0.0000 O   0  0  0  0  0  2  0  0  0  0  0  0
    3.3352   -5.5706    0.0000 C   0  0  0  0  0  4  0  0  0  0  0  0
    6.6884   -2.3166    0.0000 C   0  0  0  0  0  4  0  0  0  0  0  0
    2.2265   -2.3166    0.0000 C   0  0  0  0  0  4  0  0  0  0  0  0
    5.5887   -5.5706    0.0000 C   0  0  0  0  0  4  0  0  0  0  0  0
    4.4799   -7.5357    0.0000 N   0  0  0  0  0  4  0  0  0  0  0  0
    4.4799   -6.2016    0.0000 C   0  0  0  0  0  4  0  0  0  0  0  0
    6.6884   -3.6056    0.0000 O   0  0  0  0  0  2  0  0  0  0  0  0
    4.2726   -1.2620    0.0000 C   0  0  0  0  0  4  0  0  0  0  0  0
    6.6884   -6.2016    0.0000 C   0  0  0  0  0  4  0  0  0  0  0  0
    2.9476   -1.6135    0.0000 C   0  0  0  0  0  4  0  0  0  0  0  0
    2.2265   -6.2016    0.0000 C   0  0  0  0  0  4  0  0  0  0  0  0
    5.5887   -4.2726    0.0000 C   0  0  0  0  0  4  0  0  0  0  0  0
    6.6884   -7.5357    0.0000 C   0  0  0  0  0  4  0  0  0  0  0  0
    2.2265   -7.5357    0.0000 C   0  0  0  0  0  4  0  0  0  0  0  0
    1.0817   -4.2726    0.0000 O   0  0  0  0  0  2  0  0  0  0  0  0
    7.8151   -1.6676    0.0000 O   0  0  0  0  0  2  0  0  0  0  0  0
    1.1267   -1.6676    0.0000 C   0  0  0  0  0  4  0  0  0  0  0  0
    5.5797   -0.4777    0.0000 O   0  0  0  0  0  2  0  0  0  0  0  0
    6.4450   -1.0636    0.0000 C   0  0  0  0  0  4  0  0  0  0  0  0
    7.3374   -1.0636    0.0000 O   0  0  0  0  0  2  0  0  0  0  0  0
    4.2726    0.0000    0.0000 C   0  0  0  0  0  4  0  0  0  0  0  0
    0.0000   -2.2986    0.0000 C   0  0  0  0  0  4  0  0  0  0  0  0
    4.4799   -9.0140    0.0000 O   0  0  0  0  0  1  0  0  0  0  0  0
  1  5  1  0  0  0  0 
  1 11  1  0  0  0  0 
  1 21  1  1  0  0  0 
  1 22  1  6  0  0  0 
  2  6  1  0  0  0  0 
  2  3  1  0  0  0  0 
  2 18  2  0  0  0  0 
  4  3  1  1  0  0  0 
  4 14  1  0  0  0  0 
  4  9  1  0  0  0  0 
  5 10  1  0  0  0  0 
  5 19  2  0  0  0  0 
  6 13  1  0  0  0  0 
  6 20  2  0  0  0  0 
  7 15  1  0  0  0  0 
  7  9  1  0  0  0  0 
  7 12  2  0  0  0  0 
  8  9  1  0  0  0  0 
  8 17  1  0  0  0  0 
  8 16  1  0  0  0  0 
  8 26  1  0  0  0  0 
 10 15  1  0  0  0  0 
 11 13  1  0  0  0  0 
 11 24  1  1  0  0  0 
 12 16  1  0  0  0  0 
 14 17  1  0  0  0  0 
 20 25  1  0  0  0  0 
 22 23  1  0  0  0  0 
M  CHG  1   8   1
M  CHG  1  26  -1
M  END
> <CDK Fingerprint>
AtCYBUkDAgBqIYiKBAMBQxEUahICBDEC4TAEAMOAACATAwBhxowQAGADAAkJAADZbAYyBkaQEBJiAEQjwWQwQEAABCQucgHAABQAYVaoUMgLAAhTIGFEQDBhMoQCCEIogQhIRxABCACBCghiQBAgB7UACYAE8H/ACEtoQQZCACA=

> <ActivityOutcome_CPDBAS_Rat>
active

> <TD50_Rat_mmol>
0.00195

$$$$

  CDK     0721101958

  4  3  0  0  0  0  0  0  0  0999 V2000
    1.1459   -1.3361    0.0000 C   0  0  0  0  0  4  0  0  0  0  0  0
    0.0000   -2.0053    0.0000 C   0  0  0  0  0  4  0  0  0  0  0  0
    2.2917   -2.0053    0.0000 C   0  0  0  0  0  4  0  0  0  0  0  0
    1.1459    0.0000    0.0000 C   0  0  0  0  0  4  0  0  0  0  0  0
  1  2  2  0  0  0  0 
  1  3  1  0  0  0  0 
  1  4  1  0  0  0  0 
M  END
> <CDK Fingerprint>
QAAAAAAAAAAAAAAAAAAAAAAAAAAAAAAAAAAAAAAAAAAAAEAAAAAAAAAAAAAAAAAgAAAAAAAQAAAAAABAAAAAAAAAAAAAAAAAAAAAAAAAAAAAAAAAAAAAAAAAAAAAAAAAAAAAAAAAAAAAAAAAAAAAAAAAAAAAAAAAAAAAAAAAAA==

> <ActivityOutcome_CPDBAS_Rat>
active

> <TD50_Rat_mmol>
63.3

$$$$

  CDK     0721101958

  7  6  0  0  0  0  0  0  0  0999 V2000
    5.7637   -1.9942    0.0000 C   0  0  0  0  0  4  0  0  0  0  0  0
    4.6110   -1.3314    0.0000 C   0  0  0  0  0  4  0  0  0  0  0  0
    3.4582   -1.9942    0.0000 C   0  0  0  0  0  4  0  0  0  0  0  0
    2.3055   -1.3314    0.0000 O   0  0  0  0  0  2  0  0  0  0  0  0
    1.1527   -1.9942    0.0000 N   0  0  0  0  0  3  0  0  0  0  0  0
    0.0000   -1.3314    0.0000 O   0  0  0  0  0  2  0  0  0  0  0  0
    4.6110    0.0000    0.0000 C   0  0  0  0  0  4  0  0  0  0  0  0
  1  2  1  0  0  0  0 
  2  3  1  0  0  0  0 
  2  7  1  0  0  0  0 
  3  4  1  0  0  0  0 
  4  5  1  0  0  0  0 
  5  6  2  0  0  0  0 
M  END
> <CDK Fingerprint>
CgAAAIAAAAAAAAAAAAAAAAAAAAAEAAAAZAAAAAAAAAAAAAAAECAAAAAAAAAAAAAAAEAAAAAAAAAAAAAAAAAAAAAAAAAAAAAAAAAAAAAAABAAASAAAAAABAAAAAAAAAEAAAAAAAAAIAAAAAAAAAAAAAAAAAAA

> <ActivityOutcome_CPDBAS_Rat>
active

> <TD50_Rat_mmol>
0.525

$$$$

  CDK     0721101958

 13 12  0  0  0  0  0  0  0  0999 V2000
    0.0000   -2.6634    0.0000 C   0  0  0  0  0  4  0  0  0  0  0  0
    1.1541   -2.0015    0.0000 C   0  0  0  0  0  4  0  0  0  0  0  0
    1.1541   -0.6699    0.0000 C   0  0  0  0  0  4  0  0  0  0  0  0
    2.3082   -2.6634    0.0000 C   0  0  0  0  0  4  0  0  0  0  0  0
    3.4624   -2.0015    0.0000 N   0  0  0  0  0  3  0  0  0  0  0  0
    3.4624   -0.6699    0.0000 N   0  0  0  0  0  3  0  0  0  0  0  0
    4.6084    0.0000    0.0000 O   0  0  0  0  0  2  0  0  0  0  0  0
    4.6084   -2.6634    0.0000 C   0  0  0  0  0  4  0  0  0  0  0  0
    4.6084   -3.9950    0.0000 N   0  0  0  0  0  3  0  0  0  0  0  0
    5.7625   -2.0015    0.0000 N   0  0  0  0  0  3  0  0  0  0  0  0
    6.9166   -2.6634    0.0000 N   0  0  0  0  0  4  0  0  0  0  0  0
    8.0708   -2.0015    0.0000 O   0  0  0  0  0  1  0  0  0  0  0  0
    6.9166   -3.9950    0.0000 O   0  0  0  0  0  2  0  0  0  0  0  0
  1  2  1  0  0  0  0 
  2  3  1  0  0  0  0 
  2  4  1  0  0  0  0 
  4  5  1  0  0  0  0 
  5  6  1  0  0  0  0 
  5  8  1  0  0  0  0 
  6  7  2  0  0  0  0 
  8  9  2  0  0  0  0 
  8 10  1  0  0  0  0 
 10 11  1  0  0  0  0 
 11 12  1  0  0  0  0 
 11 13  2  0  0  0  0 
M  CHG  1  11   1
M  CHG  1  12  -1
M  END
> <CDK Fingerprint>
CABAAGIQAEgAAYAAAAAAAACQAAAAgAAAAAAABAUgIGAAAAOACAAAAAAAAABiAEFABkAAAAAAAADAAAAAAAAAAAEAAAAAAAAAAAAAgAAIBAAgAAAAAAAAIgAAAAAAABQgAAAACAAAAAAAAAAAAAAAAAAAAAAAAAAAAAMAAA==

> <ActivityOutcome_CPDBAS_Rat>
inactive

$$$$

  CDK     0721101958

  5  4  0  0  0  0  0  0  0  0999 V2000
    3.4567   -1.9945    0.0000 C   0  0  0  0  0  4  0  0  0  0  0  0
    2.3056   -1.3308    0.0000 C   0  0  0  0  0  4  0  0  0  0  0  0
    2.3056    0.0000    0.0000 C   0  0  0  0  0  4  0  0  0  0  0  0
    1.1511   -1.9945    0.0000 C   0  0  0  0  0  4  0  0  0  0  0  0
    0.0000   -1.3308    0.0000 O   0  0  0  0  0  2  0  0  0  0  0  0
  1  2  1  0  0  0  0 
  2  3  1  0  0  0  0 
  2  4  1  0  0  0  0 
  4  5  2  0  0  0  0 
M  END
> <CDK Fingerprint>
YAAAAAAAAAAAAAAAACAAAAAAAAAAAAAAAEAAAAAAAAAAAAAAAAAAAAAAAAAAAAAAAAAAAAAAAAAAAAAAAAAAQAAAAAAAAAAAAAAAAAEAAAAAABAAAAAAAAAAAAAA

> <ActivityOutcome_CPDBAS_Rat>
inactive

$$$$

  CDK     0721101958

 20 22  0  0  0  0  0  0  0  0999 V2000
    6.3464    0.0000    0.0000 C   0  0  0  0  0  4  0  0  0  0  0  0
    5.6849   -1.1473    0.0000 O   0  0  0  0  0  2  0  0  0  0  0  0
    6.3464   -2.3050    0.0000 C   0  0  0  0  0  4  0  0  0  0  0  0
    7.6798   -2.3050    0.0000 C   0  0  0  0  0  4  0  0  0  0  0  0
    8.3413   -3.4523    0.0000 C   0  0  0  0  0  4  0  0  0  0  0  0
    7.6798   -4.6099    0.0000 C   0  0  0  0  0  4  0  0  0  0  0  0
    6.3464   -4.6099    0.0000 C   0  0  0  0  0  4  0  0  0  0  0  0
    5.6849   -3.4523    0.0000 C   0  0  0  0  0  4  0  0  0  0  0  0
    4.3515   -3.4523    0.0000 C   0  0  0  0  0  4  0  0  0  0  0  0
    3.5660   -4.5272    0.0000 N   0  0  0  0  0  3  0  0  0  0  0  0
    2.3050   -4.1241    0.0000 C   0  0  0  0  0  4  0  0  0  0  0  0
    1.1473   -4.7856    0.0000 C   0  0  0  0  0  4  0  0  0  0  0  0
    0.0000   -4.1241    0.0000 N   0  0  0  0  0  3  0  0  0  0  0  0
    0.0000   -2.7908    0.0000 C   0  0  0  0  0  4  0  0  0  0  0  0
    1.1473   -2.1292    0.0000 C   0  0  0  0  0  4  0  0  0  0  0  0
    2.3050   -2.7908    0.0000 C   0  0  0  0  0  4  0  0  0  0  0  0
    3.5660   -2.3773    0.0000 N   0  0  0  0  0  3  0  0  0  0  0  0
    9.6746   -3.4523    0.0000 S   0  0  0  0  0  4  0  0  0  0  0  0
   10.3361   -2.3050    0.0000 C   0  0  0  0  0  4  0  0  0  0  0  0
   10.3361   -4.6099    0.0000 O   0  0  0  0  0  2  0  0  0  0  0  0
  1  2  1  0  0  0  0 
  2  3  1  0  0  0  0 
  3  4  1  0  0  0  0 
  3  8  2  0  0  0  0 
  4  5  2  0  0  0  0 
  5  6  1  0  0  0  0 
  5 18  1  0  0  0  0 
  6  7  2  0  0  0  0 
  7  8  1  0  0  0  0 
  8  9  1  0  0  0  0 
  9 10  1  0  0  0  0 
  9 17  2  0  0  0  0 
 10 11  1  0  0  0  0 
 11 12  2  0  0  0  0 
 11 16  1  0  0  0  0 
 12 13  1  0  0  0  0 
 13 14  2  0  0  0  0 
 14 15  1  0  0  0  0 
 15 16  2  0  0  0  0 
 16 17  1  0  0  0  0 
 18 19  1  0  0  0  0 
 18 20  2  0  0  0  0 
M  END
> <CDK Fingerprint>
TIACC5UiAUAAii4AAIEAKIEAICSEgKCKAIAABAEIAoAQg2MAAAAqg4QAEABwohggAAAsCBAEAEAQgBACAIBDAQYwAAQANSEQQAAFAAIBgACgIMS0BAABIKEwAAAAgAYgYBAQwCCgIUMoAALCEIEAAEAIAqIAYCABAAEAAigBQg==

> <ActivityOutcome_CPDBAS_Rat>
active

> <TD50_Rat_mmol>
0.245

$$$$

  CDK     0721101958

 10 10  0  0  0  0  0  0  0  0999 V2000
    4.6545   -3.4536    0.0000 O   0  0  0  0  0  2  0  0  0  0  0  0
    3.9889   -2.3040    0.0000 C   0  0  0  0  0  4  0  0  0  0  0  0
    2.6577   -2.3040    0.0000 C   0  0  0  0  0  4  0  0  0  0  0  0
    1.9968   -3.4536    0.0000 C   0  0  0  0  0  4  0  0  0  0  0  0
    0.6656   -3.4536    0.0000 C   0  0  0  0  0  4  0  0  0  0  0  0
    0.0000   -2.3040    0.0000 N   0  0  0  0  0  3  0  0  0  0  0  0
    0.6656   -1.1497    0.0000 C   0  0  0  0  0  4  0  0  0  0  0  0
    1.9968   -1.1497    0.0000 C   0  0  0  0  0  4  0  0  0  0  0  0
    4.6545   -1.1497    0.0000 N   0  0  0  0  0  3  0  0  0  0  0  0
    3.9889    0.0000    0.0000 N   0  0  0  0  0  3  0  0  0  0  0  0
  1  2  2  0  0  0  0 
  2  3  1  0  0  0  0 
  2  9  1  0  0  0  0 
  3  4  2  0  0  0  0 
  3  8  1  0  0  0  0 
  4  5  1  0  0  0  0 
  5  6  2  0  0  0  0 
  6  7  1  0  0  0  0 
  7  8  2  0  0  0  0 
  9 10  1  0  0  0  0 
M  END
> <CDK Fingerprint>
AgiQAgACAAAMAACAgAAAAAAAAAAAAgAAAAAACCQAAABgAAAABAAAAAAAAQAIIAAAAAAAAABAAAAAAQAAAgEAgAEAAAAAAAAAAAAAAAAAgAAAAAIBAACAIAAAAIgAIABAIAAgAAAAAAAACAAAAAAAAACAWABAAAAAAACDAAA=

> <ActivityOutcome_CPDBAS_Rat>
active

> <TD50_Rat_mmol>
1.09

$$$$

  CDK     0721101958

 10 10  0  0  0  0  0  0  0  0999 V2000
    0.8533   -4.5763    0.0000 C   0  0  0  0  0  4  0  0  0  0  0  0
    1.3109   -3.3274    0.0000 C   0  0  0  0  0  4  0  0  0  0  0  0
    1.3109   -1.9974    0.0000 C   0  0  0  0  0  4  0  0  0  0  0  0
    2.4645   -1.3300    0.0000 C   0  0  0  0  0  4  0  0  0  0  0  0
    3.6134   -1.9974    0.0000 C   0  0  0  0  0  4  0  0  0  0  0  0
    3.6134   -3.3274    0.0000 C   0  0  0  0  0  4  0  0  0  0  0  0
    4.7670   -3.9900    0.0000 O   0  0  0  0  0  2  0  0  0  0  0  0
    2.4645   -3.9900    0.0000 C   0  0  0  0  0  4  0  0  0  0  0  0
    2.4645    0.0000    0.0000 C   0  0  0  0  0  4  0  0  0  0  0  0
    0.0000   -3.0938    0.0000 C   0  0  0  0  0  4  0  0  0  0  0  0
  1  2  1  0  0  0  0 
  2  3  1  0  0  0  0 
  2  8  1  0  0  0  0 
  2 10  1  0  0  0  0 
  3  4  1  0  0  0  0 
  4  5  2  0  0  0  0 
  4  9  1  0  0  0  0 
  5  6  1  0  0  0  0 
  6  7  2  0  0  0  0 
  6  8  1  0  0  0  0 
M  END
> <CDK Fingerprint>
QAAAAAAAAAAAAAAAAAAAAAAAAoAEQABAAAAAQAAAAAEBAGAAAAAAAAAAAAAAAAAgAAAAAAAQAAAAACBAAAAAAAAAAQRAAAAAAAAAAAABAAAAAAAAAQAAAAAAAAAAAAAAAEAAAAAAAAAAAAAAEAABAAAAAACwCAAAAABABAAAIA==

> <ActivityOutcome_CPDBAS_Rat>
active

> <TD50_Rat_mmol>
8.75

$$$$

  CDK     0721101958

 14 14  0  0  0  0  0  0  0  0999 V2000
    5.8349   -1.0293    0.0000 Cl  0  0  0  0  0  1  0  0  0  0  0  0
    4.5243   -1.2567    0.0000 C   0  0  0  0  0  4  0  0  0  0  0  0
    4.0694   -2.5075    0.0000 C   0  0  0  0  0  4  0  0  0  0  0  0
    2.7588   -2.7409    0.0000 N   0  0  0  0  0  3  0  0  0  0  0  0
    2.3040   -3.9916    0.0000 P   0  0  0  0  0  5  0  0  0  0  0  0
    3.6146   -4.2191    0.0000 O   0  0  0  0  0  2  0  0  0  0  0  0
    2.3040   -5.3202    0.0000 O   0  0  0  0  0  2  0  0  0  0  0  0
    1.1490   -5.9845    0.0000 C   0  0  0  0  0  4  0  0  0  0  0  0
    0.0000   -5.3202    0.0000 C   0  0  0  0  0  4  0  0  0  0  0  0
    0.0000   -3.9916    0.0000 C   0  0  0  0  0  4  0  0  0  0  0  0
    1.1490   -3.3274    0.0000 N   0  0  0  0  0  3  0  0  0  0  0  0
    1.1490   -1.9928    0.0000 C   0  0  0  0  0  4  0  0  0  0  0  0
    0.0000   -1.3286    0.0000 C   0  0  0  0  0  4  0  0  0  0  0  0
    0.0000    0.0000    0.0000 Cl  0  0  0  0  0  1  0  0  0  0  0  0
  1  2  1  0  0  0  0 
  2  3  1  0  0  0  0 
  3  4  1  0  0  0  0 
  4  5  1  0  0  0  0 
  5  6  2  0  0  0  0 
  5  7  1  0  0  0  0 
  5 11  1  0  0  0  0 
  7  8  1  0  0  0  0 
  8  9  1  0  0  0  0 
  9 10  1  0  0  0  0 
 10 11  1  0  0  0  0 
 11 12  1  0  0  0  0 
 12 13  1  0  0  0  0 
 13 14  1  0  0  0  0 
M  END
> <CDK Fingerprint>
AhAAAAAAAAIBwAIAEQAAAAACAAACQAIAABAABAAACAApAeCABAAAAAAAAkAEABAgAhgBAgAAgAgAAEjAAKABAAJNGIAAgAAQAAAAAIQAgAAAAAogAAAAAAQQAAAAAABEAOAAEAAMDAAAAAAwBoAAAAAAEAIgQAIAAFhAEAOAAg==

> <ActivityOutcome_CPDBAS_Rat>
active

> <TD50_Rat_mmol>
0.00283

$$$$

  CDK     0721101958

  5  4  0  0  0  0  0  0  0  0999 V2000
    3.4567   -1.9945    0.0000 C   0  0  0  0  0  4  0  0  0  0  0  0
    2.3056   -1.3308    0.0000 C   0  0  0  0  0  4  0  0  0  0  0  0
    2.3056    0.0000    0.0000 C   0  0  0  0  0  4  0  0  0  0  0  0
    1.1511   -1.9945    0.0000 C   0  0  0  0  0  4  0  0  0  0  0  0
    0.0000   -1.3308    0.0000 C   0  0  0  0  0  4  0  0  0  0  0  0
  1  2  1  0  0  0  0 
  2  3  2  0  0  0  0 
  2  4  1  0  0  0  0 
  4  5  2  0  0  0  0 
M  END
> <CDK Fingerprint>
QAAAAAAAAAAAAAAAAAAAAAAAAAAEAAAAAAAEAAAAAAAAAEAAAAAAAAAAAAAAAAAgAAAAAAAQAAAAAABAAAAAAAAAAAAAAAAAAAAAAAAAAAAAAAAAAAAAAAAAAAAAAAAAAAAAAAAAAAAAAAAAAAAAAAAAAAAAAAAAAAAAAAAAAA==

> <ActivityOutcome_CPDBAS_Rat>
active

> <TD50_Rat_mmol>
4.6

$$$$

  CDK     0721101958

  4  3  0  0  0  0  0  0  0  0999 V2000
    1.1518    0.0000    0.0000 O   0  0  0  0  0  2  0  0  0  0  0  0
    1.1518   -1.3292    0.0000 C   0  0  0  0  0  4  0  0  0  0  0  0
    0.0000   -1.9950    0.0000 C   0  0  0  0  0  4  0  0  0  0  0  0
    2.3037   -1.9950    0.0000 C   0  0  0  0  0  4  0  0  0  0  0  0
  1  2  1  0  0  0  0 
  2  3  1  0  0  0  0 
  2  4  1  0  0  0  0 
M  END
> <CDK Fingerprint>
AgAAAAAAAAAAAAAAAAAAAAAAAAAAAAAAYAAAAAAAAAAAAAAAACAAAAAAAAAAAAAAAEAAAAAAAAAAAAAAAAAAAAAAAAAAAAAAAAAAAAAAABAAAAAAAAAAAAAAAAAAAAAAAAAAAAAAAAAAAAAAAAAAAAAAAAAA

> <ActivityOutcome_CPDBAS_Rat>
inactive

$$$$

  CDK     0721101958

 14 14  0  0  0  0  0  0  0  0999 V2000
    3.4524   -0.6629    0.0000 O   0  0  0  0  0  2  0  0  0  0  0  0
    3.4524   -1.9978    0.0000 C   0  0  0  0  0  4  0  0  0  0  0  0
    4.6031   -2.6606    0.0000 N   0  0  0  0  0  3  0  0  0  0  0  0
    5.7539   -1.9978    0.0000 C   0  0  0  0  0  4  0  0  0  0  0  0
    5.7539   -0.6629    0.0000 C   0  0  0  0  0  4  0  0  0  0  0  0
    6.9047    0.0000    0.0000 C   0  0  0  0  0  4  0  0  0  0  0  0
    8.0555   -0.6629    0.0000 C   0  0  0  0  0  4  0  0  0  0  0  0
    8.0555   -1.9978    0.0000 C   0  0  0  0  0  4  0  0  0  0  0  0
    6.9047   -2.6606    0.0000 C   0  0  0  0  0  4  0  0  0  0  0  0
    9.2063   -2.6606    0.0000 Cl  0  0  0  0  0  1  0  0  0  0  0  0
    2.3016   -2.6606    0.0000 O   0  0  0  0  0  2  0  0  0  0  0  0
    1.1508   -1.9978    0.0000 C   0  0  0  0  0  4  0  0  0  0  0  0
    0.0000   -2.6606    0.0000 C   0  0  0  0  0  4  0  0  0  0  0  0
    1.1508   -0.6629    0.0000 C   0  0  0  0  0  4  0  0  0  0  0  0
  1  2  2  0  0  0  0 
  2  3  1  0  0  0  0 
  2 11  1  0  0  0  0 
  3  4  1  0  0  0  0 
  4  5  2  0  0  0  0 
  4  9  1  0  0  0  0 
  5  6  1  0  0  0  0 
  6  7  2  0  0  0  0 
  7  8  1  0  0  0  0 
  8  9  2  0  0  0  0 
  8 10  1  0  0  0  0 
 11 12  1  0  0  0  0 
 12 13  1  0  0  0  0 
 12 14  1  0  0  0  0 
M  END
> <CDK Fingerprint>
CAADgAAAICAQAAIAAAAAAAAAAAAAAECAAAAQgATAAgAAEOAAAACAAAAAAAAAAEAgAwQAAAACAUAAAQDABIIByAAAAAAAAQAAAAgABQMAAAAIAgAAAAAhQQkRAAAAAAAgAEAAgCAEAAAAQAIAAAAAAAAAAIBAAEAAAAAAAAIQAA==

> <ActivityOutcome_CPDBAS_Rat>
inactive

$$$$

  CDK     0721101958

 58 60  0  0  0  0  0  0  0  0999 V2000
    3.4539   -6.0068    0.0000 O   0  0  0  0  0  2  0  0  0  0  0  0
    3.4539   -7.3154    0.0000 C   0  0  0  0  0  4  0  0  0  0  0  0
    2.3169   -5.3203    0.0000 C   0  0  0  0  0  4  0  0  0  0  0  0
    2.3169   -7.9805    0.0000 O   0  0  0  0  0  2  0  0  0  0  0  0
    1.1585   -6.0068    0.0000 C   0  0  0  0  0  4  0  0  0  0  0  0
    1.1585   -7.3154    0.0000 C   0  0  0  0  0  4  0  0  0  0  0  0
    4.6124   -5.3203    0.0000 O   0  0  0  0  0  2  0  0  0  0  0  0
    5.7494   -6.0068    0.0000 C   0  0  0  0  0  4  0  0  0  0  0  0
    4.6124   -7.9805    0.0000 C   0  0  0  0  0  4  0  0  0  0  0  0
    5.7494   -7.3369    0.0000 C   0  0  0  0  0  4  0  0  0  0  0  0
    4.6124   -3.9902    0.0000 C   0  0  0  0  0  4  0  0  0  0  0  0
    2.3169   -3.9902    0.0000 C   0  0  0  0  0  4  0  0  0  0  0  0
    3.4539   -3.3252    0.0000 C   0  0  0  0  0  4  0  0  0  0  0  0
    6.9293   -5.3203    0.0000 C   0  0  0  0  0  4  0  0  0  0  0  0
    5.7494   -3.3252    0.0000 C   0  0  0  0  0  4  0  0  0  0  0  0
    6.9293   -3.9902    0.0000 C   0  0  0  0  0  4  0  0  0  0  0  0
    5.7494   -1.9951    0.0000 C   0  0  0  0  0  4  0  0  0  0  0  0
    3.4539   -2.0166    0.0000 C   0  0  0  0  0  4  0  0  0  0  0  0
    4.6124   -1.3301    0.0000 C   0  0  0  0  0  4  0  0  0  0  0  0
    0.0000   -7.9805    0.0000 C   0  0  0  0  0  4  0  0  0  0  0  0
    4.6124    0.0000    0.0000 O   0  0  0  0  0  2  0  0  0  0  0  0
    6.9293   -1.3301    0.0000 C   0  0  0  0  0  4  0  0  0  0  0  0
    8.0663   -3.3252    0.0000 C   0  0  0  0  0  4  0  0  0  0  0  0
    8.0663   -5.9854    0.0000 O   0  0  0  0  0  2  0  0  0  0  0  0
    6.9293   -7.9805    0.0000 O   0  0  0  0  0  2  0  0  0  0  0  0
    8.0663   -1.9951    0.0000 C   0  0  0  0  0  4  0  0  0  0  0  0
    9.2247   -1.3301    0.0000 O   0  0  0  0  0  2  0  0  0  0  0  0
    6.9293   -9.3320    0.0000 C   0  0  0  0  0  4  0  0  0  0  0  0
    8.0663   -9.9971    0.0000 O   0  0  0  0  0  2  0  0  0  0  0  0
    5.7494   -9.9971    0.0000 C   0  0  0  0  0  4  0  0  0  0  0  0
   12.0565   -5.9854    0.0000 C   0  0  0  0  0  4  0  0  0  0  0  0
   11.3915   -7.1224    0.0000 C   0  0  0  0  0  4  0  0  0  0  0  0
   11.3915   -4.8269    0.0000 C   0  0  0  0  0  4  0  0  0  0  0  0
   10.0614   -7.1224    0.0000 O   0  0  0  0  0  2  0  0  0  0  0  0
   10.0614   -4.8269    0.0000 C   0  0  0  0  0  4  0  0  0  0  0  0
    9.3964   -5.9854    0.0000 C   0  0  0  0  0  4  0  0  0  0  0  0
   12.0565   -8.2808    0.0000 C   0  0  0  0  0  4  0  0  0  0  0  0
   13.3866   -5.9854    0.0000 O   0  0  0  0  0  2  0  0  0  0  0  0
   12.0565   -3.6684    0.0000 N   0  0  0  0  0  3  0  0  0  0  0  0
   13.3866   -3.6684    0.0000 C   0  0  0  0  0  4  0  0  0  0  0  0
   11.3915   -2.5100    0.0000 C   0  0  0  0  0  4  0  0  0  0  0  0
    9.3964   -3.6684    0.0000 O   0  0  0  0  0  2  0  0  0  0  0  0
   16.8620   -6.6504    0.0000 C   0  0  0  0  0  4  0  0  0  0  0  0
   16.8620   -7.9805    0.0000 C   0  0  0  0  0  4  0  0  0  0  0  0
   15.7035   -5.9854    0.0000 C   0  0  0  0  0  4  0  0  0  0  0  0
   15.7035   -8.6455    0.0000 C   0  0  0  0  0  4  0  0  0  0  0  0
   14.5451   -6.6504    0.0000 C   0  0  0  0  0  4  0  0  0  0  0  0
   14.5451   -7.9805    0.0000 O   0  0  0  0  0  2  0  0  0  0  0  0
   17.9990   -8.6455    0.0000 O   0  0  0  0  0  2  0  0  0  0  0  0
   15.7035   -9.9756    0.0000 C   0  0  0  0  0  4  0  0  0  0  0  0
   17.5056   -5.5134    0.0000 O   0  0  0  0  0  2  0  0  0  0  0  0
   18.1063   -6.2428    0.0000 C   0  0  0  0  0  4  0  0  0  0  0  0
   19.1360   -7.9805    0.0000 C   0  0  0  0  0  4  0  0  0  0  0  0
   20.2944   -8.6455    0.0000 O   0  0  0  0  0  2  0  0  0  0  0  0
   19.1360   -6.6504    0.0000 C   0  0  0  0  0  4  0  0  0  0  0  0
   20.3159   -6.0068    0.0000 C   0  0  0  0  0  4  0  0  0  0  0  0
   20.3159   -4.6767    0.0000 C   0  0  0  0  0  4  0  0  0  0  0  0
   21.4529   -6.6504    0.0000 C   0  0  0  0  0  4  0  0  0  0  0  0
  1  2  2  0  0  0  0 
  2  4  1  0  0  0  0 
  2  9  1  0  0  0  0 
  3  5  1  0  0  0  0 
  3 12  2  0  0  0  0 
  4  6  1  0  0  0  0 
  5  6  1  0  0  0  0 
  6 20  1  6  0  0  0 
  7  8  1  0  0  0  0 
  7 11  1  0  0  0  0 
  8 10  1  0  0  0  0 
  8 14  1  0  0  0  0 
  9 10  1  0  0  0  0 
 10 25  1  6  0  0  0 
 12 13  1  0  0  0  0 
 13 18  2  0  0  0  0 
 14 16  1  0  0  0  0 
 14 24  1  6  0  0  0 
 15 16  1  0  0  0  0 
 15 17  1  0  0  0  0 
 16 23  1  6  0  0  0 
 17 19  1  0  0  0  0 
 17 22  1  6  0  0  0 
 18 19  1  0  0  0  0 
 19 21  1  6  0  0  0 
 23 26  1  0  0  0  0 
 36 24  1  1  0  0  0 
 25 28  1  0  0  0  0 
 26 27  2  0  0  0  0 
 28 29  2  0  0  0  0 
 28 30  1  0  0  0  0 
 31 32  1  0  0  0  0 
 31 33  1  0  0  0  0 
 31 38  1  6  0  0  0 
 32 34  1  0  0  0  0 
 32 37  1  1  0  0  0 
 33 35  1  0  0  0  0 
 33 39  1  1  0  0  0 
 34 36  1  0  0  0  0 
 35 36  1  0  0  0  0 
 35 42  1  6  0  0  0 
 47 38  1  1  0  0  0 
 39 40  1  0  0  0  0 
 39 41  1  0  0  0  0 
 43 44  1  0  0  0  0 
 43 45  1  0  0  0  0 
 43 51  1  1  0  0  0 
 43 52  1  0  0  0  0 
 44 46  1  0  0  0  0 
 44 49  1  6  0  0  0 
 45 47  1  0  0  0  0 
 46 48  1  0  0  0  0 
 46 50  1  6  0  0  0 
 47 48  1  0  0  0  0 
 49 53  1  0  0  0  0 
 53 54  2  0  0  0  0 
 53 55  1  0  0  0  0 
 55 56  1  0  0  0  0 
 56 57  1  0  0  0  0 
 56 58  1  0  0  0  0 
M  END
> <CDK Fingerprint>
AITghAMJAgIDOgCV41VVBAIVdAgODAwREMCABA2gAAAAFVOIakSAAAAAcAQFITAAWCwCIgAcmBiyZQCUO8NgBIAQgARADAIBwBBEBABWZBOZAEAAe2EgRFQEYREAAABCKAAASmUUAEQAAIIAAHEQIAMgAAABBNv8oAA4AEQGAwAg

> <ActivityOutcome_CPDBAS_Rat>
inactive

$$$$

  CDK     0721101958

 21 23  0  0  0  0  0  0  0  0999 V2000
    4.6012    0.0000    0.0000 O   0  0  0  0  0  2  0  0  0  0  0  0
    4.6012   -1.3265    0.0000 C   0  0  0  0  0  4  0  0  0  0  0  0
    3.4509   -1.9897    0.0000 C   0  0  0  0  0  4  0  0  0  0  0  0
    3.4509   -3.3162    0.0000 C   0  0  0  0  0  4  0  0  0  0  0  0
    2.3006   -3.9898    0.0000 C   0  0  0  0  0  4  0  0  0  0  0  0
    1.1503   -3.3162    0.0000 C   0  0  0  0  0  4  0  0  0  0  0  0
    1.1503   -1.9897    0.0000 C   0  0  0  0  0  4  0  0  0  0  0  0
    2.3006   -1.3265    0.0000 C   0  0  0  0  0  4  0  0  0  0  0  0
    2.3006    0.0000    0.0000 O   0  0  0  0  0  2  0  0  0  0  0  0
    0.0000   -3.9898    0.0000 O   0  0  0  0  0  2  0  0  0  0  0  0
    4.6012   -3.9898    0.0000 O   0  0  0  0  0  2  0  0  0  0  0  0
    5.7619   -3.3162    0.0000 C   0  0  0  0  0  4  0  0  0  0  0  0
    5.7619   -1.9897    0.0000 C   0  0  0  0  0  4  0  0  0  0  0  0
    6.9122   -1.3265    0.0000 O   0  0  0  0  0  2  0  0  0  0  0  0
    6.9122   -3.9898    0.0000 C   0  0  0  0  0  4  0  0  0  0  0  0
    8.0625   -3.3162    0.0000 C   0  0  0  0  0  4  0  0  0  0  0  0
    9.2128   -3.9898    0.0000 C   0  0  0  0  0  4  0  0  0  0  0  0
    9.2128   -5.3163    0.0000 C   0  0  0  0  0  4  0  0  0  0  0  0
    8.0625   -5.9795    0.0000 C   0  0  0  0  0  4  0  0  0  0  0  0
    6.9122   -5.3163    0.0000 C   0  0  0  0  0  4  0  0  0  0  0  0
   10.3631   -5.9795    0.0000 O   0  0  0  0  0  2  0  0  0  0  0  0
  1  2  2  0  0  0  0 
  2  3  1  0  0  0  0 
  2 13  1  0  0  0  0 
  3  4  2  0  0  0  0 
  3  8  1  0  0  0  0 
  4  5  1  0  0  0  0 
  4 11  1  0  0  0  0 
  5  6  2  0  0  0  0 
  6  7  1  0  0  0  0 
  6 10  1  0  0  0  0 
  7  8  2  0  0  0  0 
  8  9  1  0  0  0  0 
 11 12  1  0  0  0  0 
 12 13  2  0  0  0  0 
 12 15  1  0  0  0  0 
 13 14  1  0  0  0  0 
 15 16  2  0  0  0  0 
 15 20  1  0  0  0  0 
 16 17  1  0  0  0  0 
 17 18  2  0  0  0  0 
 18 19  1  0  0  0  0 
 18 21  1  0  0  0  0 
 19 20  2  0  0  0  0 
M  END
> <CDK Fingerprint>
AkICAZAAAAQAAIACAjAQVRCBoABQjCBAgARMkCEIQBBKoIJpAEACBIgIAkhgEAAQIBZEIEiAGCBICQAI4EgAAhgPGAklwggRCSAABBIoBIEAFsBIAAUIAlCAcAAAAsICIIBKCNAgbSAAABCGTEgMCsKIPVCEMghAaQNAICAiQBE=

> <ActivityOutcome_CPDBAS_Rat>
inactive

$$$$

  CDK     0721101958

 21 25  0  0  0  0  0  0  0  0999 V2000
    3.0763   -2.1906    0.0000 C   0  0  0  0  0  4  0  0  0  0  0  0
    4.7125   -3.8741    0.0000 C   0  0  0  0  0  4  0  0  0  0  0  0
    2.0351   -1.4536    0.0000 C   0  0  0  0  0  4  0  0  0  0  0  0
    3.6781   -3.1304    0.0000 C   0  0  0  0  0  4  0  0  0  0  0  0
    4.7125   -2.1906    0.0000 C   0  0  0  0  0  4  0  0  0  0  0  0
    3.6781   -1.4536    0.0000 C   0  0  0  0  0  4  0  0  0  0  0  0
    3.0763   -3.8741    0.0000 C   0  0  0  0  0  4  0  0  0  0  0  0
    2.0351   -3.1304    0.0000 C   0  0  0  0  0  4  0  0  0  0  0  0
    5.8416   -1.1359    0.0000 C   0  0  0  0  0  4  0  0  0  0  0  0
    1.0818   -4.0837    0.0000 C   0  0  0  0  0  4  0  0  0  0  0  0
    0.0000   -4.7531    0.0000 O   0  0  0  0  0  2  0  0  0  0  0  0
    1.4942   -0.8181    0.0000 Cl  0  0  0  0  0  1  0  0  0  0  0  0
    5.0844   -4.6652    0.0000 Cl  0  0  0  0  0  1  0  0  0  0  0  0
    4.3068   -2.7856    0.0000 Cl  0  0  0  0  0  1  0  0  0  0  0  0
    2.4002   -2.4813    0.0000 Cl  0  0  0  0  0  1  0  0  0  0  0  0
    5.5577   -2.5016    0.0000 Cl  0  0  0  0  0  1  0  0  0  0  0  0
    4.1446   -0.7032    0.0000 Cl  0  0  0  0  0  1  0  0  0  0  0  0
    3.4008   -4.7531    0.0000 Cl  0  0  0  0  0  1  0  0  0  0  0  0
    1.2440   -2.8600    0.0000 Cl  0  0  0  0  0  1  0  0  0  0  0  0
    6.2270    0.0000    0.0000 Cl  0  0  0  0  0  1  0  0  0  0  0  0
    6.7611   -1.8187    0.0000 Cl  0  0  0  0  0  1  0  0  0  0  0  0
  1  3  1  0  0  0  0 
  1  5  1  0  0  0  0 
  1  7  1  0  0  0  0 
  1 15  1  0  0  0  0 
  2  7  1  0  0  0  0 
  2  4  1  0  0  0  0 
  2 13  1  0  0  0  0 
  2  5  1  0  0  0  0 
  3  6  1  0  0  0  0 
  3  8  1  0  0  0  0 
  3 12  1  0  0  0  0 
  4 14  1  0  0  0  0 
  4  8  1  0  0  0  0 
  4  6  1  0  0  0  0 
  5  9  1  0  0  0  0 
  5 16  1  0  0  0  0 
  6 17  1  0  0  0  0 
  6  9  1  0  0  0  0 
  7 10  1  0  0  0  0 
  7 18  1  0  0  0  0 
  8 19  1  0  0  0  0 
  8 10  1  0  0  0  0 
  9 20  1  0  0  0  0 
  9 21  1  0  0  0  0 
 10 11  2  0  0  0  0 
M  END
> <CDK Fingerprint>
EAAEAAAAAAAAAAAAQAEAAAIAAAABAQDgAAAAAAAAAAAAAAAAoABgAA5BAACAAAIgQAAAAQAAAYQAAIAAQgAEAAAAAQAAAAAAAAAAAAAAACAAAAAAAABAAAAAQAAAAAAAABAAAQAAAAAAEAAAAAAAAAQAAAA=

> <ActivityOutcome_CPDBAS_Rat>
active

> <TD50_Rat_mmol>
0.00603

$$$$

  CDK     0721101958

 19 20  0  0  0  0  0  0  0  0999 V2000
    1.9969    0.0000    0.0000 O   0  0  0  0  0  2  0  0  0  0  0  0
    2.6625   -1.1497    0.0000 C   0  0  0  0  0  4  0  0  0  0  0  0
    3.9937   -1.1497    0.0000 C   0  0  0  0  0  4  0  0  0  0  0  0
    4.6507    0.0000    0.0000 C   0  0  0  0  0  4  0  0  0  0  0  0
    5.9819    0.0000    0.0000 C   0  0  0  0  0  4  0  0  0  0  0  0
    6.6475   -1.1497    0.0000 C   0  0  0  0  0  4  0  0  0  0  0  0
    5.9819   -2.3080    0.0000 C   0  0  0  0  0  4  0  0  0  0  0  0
    4.6507   -2.3080    0.0000 C   0  0  0  0  0  4  0  0  0  0  0  0
    6.6475   -3.4578    0.0000 C   0  0  0  0  0  4  0  0  0  0  0  0
    7.9788   -3.4578    0.0000 C   0  0  0  0  0  4  0  0  0  0  0  0
    8.6444   -4.6075    0.0000 O   0  0  0  0  0  2  0  0  0  0  0  0
    8.6444   -2.3080    0.0000 O   0  0  0  0  0  2  0  0  0  0  0  0
    5.9819   -4.6075    0.0000 C   0  0  0  0  0  4  0  0  0  0  0  0
    1.9969   -2.3080    0.0000 C   0  0  0  0  0  4  0  0  0  0  0  0
    2.6625   -3.4578    0.0000 C   0  0  0  0  0  4  0  0  0  0  0  0
    1.9969   -4.6075    0.0000 C   0  0  0  0  0  4  0  0  0  0  0  0
    0.6656   -4.6075    0.0000 C   0  0  0  0  0  4  0  0  0  0  0  0
    0.0000   -3.4578    0.0000 C   0  0  0  0  0  4  0  0  0  0  0  0
    0.6656   -2.3080    0.0000 C   0  0  0  0  0  4  0  0  0  0  0  0
  1  2  2  0  0  0  0 
  2  3  1  0  0  0  0 
  2 14  1  0  0  0  0 
  3  4  2  0  0  0  0 
  3  8  1  0  0  0  0 
  4  5  1  0  0  0  0 
  5  6  2  0  0  0  0 
  6  7  1  0  0  0  0 
  7  8  2  0  0  0  0 
  7  9  1  0  0  0  0 
  9 10  1  0  0  0  0 
  9 13  1  0  0  0  0 
 10 11  2  0  0  0  0 
 10 12  1  0  0  0  0 
 14 15  2  0  0  0  0 
 14 19  1  0  0  0  0 
 15 16  1  0  0  0  0 
 16 17  2  0  0  0  0 
 17 18  1  0  0  0  0 
 18 19  2  0  0  0  0 
M  END
> <CDK Fingerprint>
AIACAoAABBABAAAEAAAAAAQAAEAAKABIAABoAAAABgAAAACCAAAQMAAAAAQAAABAAQAIUAAAAACMCCAAAgAAAAAQAIAAJAAIAAAAAAAIAACAMEAAAoAAIABAAEAgAAAgAAACQAAEASABFACSUAhBAAAABiAAQAQ=

> <ActivityOutcome_CPDBAS_Rat>
inactive

$$$$

  CDK     0721101958

 29 30  0  0  0  0  0  0  0  0999 V2000
    4.3962   -6.0190    0.0000 N   0  0  0  0  0  3  0  0  0  0  0  0
    4.3962   -4.7595    0.0000 C   0  0  0  0  0  4  0  0  0  0  0  0
    3.3062   -4.1055    0.0000 C   0  0  0  0  0  4  0  0  0  0  0  0
    2.1920   -6.0190    0.0000 C   0  0  0  0  0  4  0  0  0  0  0  0
    2.1920   -4.7595    0.0000 C   0  0  0  0  0  4  0  0  0  0  0  0
    6.5883   -6.0190    0.0000 C   0  0  0  0  0  4  0  0  0  0  0  0
    5.4862   -4.1055    0.0000 C   0  0  0  0  0  4  0  0  0  0  0  0
    6.5883   -4.7595    0.0000 C   0  0  0  0  0  4  0  0  0  0  0  0
    3.3062   -2.8460    0.0000 O   0  0  0  0  0  2  0  0  0  0  0  0
    5.4862   -2.8460    0.0000 C   0  0  0  0  0  4  0  0  0  0  0  0
    6.5883   -2.2042    0.0000 O   0  0  0  0  0  2  0  0  0  0  0  0
    2.1920   -2.2042    0.0000 C   0  0  0  0  0  4  0  0  0  0  0  0
    2.1920   -0.9446    0.0000 O   0  0  0  0  0  2  0  0  0  0  0  0
    1.0900   -2.8460    0.0000 C   0  0  0  0  0  4  0  0  0  0  0  0
    1.0900   -4.1055    0.0000 C   0  0  0  0  0  4  0  0  0  0  0  0
    0.0000   -2.2042    0.0000 C   0  0  0  0  0  4  0  0  0  0  0  0
    0.0000   -0.9446    0.0000 C   0  0  0  0  0  4  0  0  0  0  0  0
    7.6782   -2.8218    0.0000 C   0  0  0  0  0  4  0  0  0  0  0  0
    8.8045   -2.1920    0.0000 C   0  0  0  0  0  4  0  0  0  0  0  0
    7.6782   -4.1055    0.0000 O   0  0  0  0  0  2  0  0  0  0  0  0
    9.9066   -2.8218    0.0000 C   0  0  0  0  0  4  0  0  0  0  0  0
   11.0208   -2.1920    0.0000 O   0  0  0  0  0  2  0  0  0  0  0  0
    9.9066   -4.1055    0.0000 C   0  0  0  0  0  4  0  0  0  0  0  0
   12.1108   -2.8097    0.0000 C   0  0  0  0  0  4  0  0  0  0  0  0
    9.4464   -1.0900    0.0000 O   0  0  0  0  0  2  0  0  0  0  0  0
    8.1748   -1.0900    0.0000 C   0  0  0  0  0  4  0  0  0  0  0  0
    6.9152   -1.0900    0.0000 C   0  0  0  0  0  4  0  0  0  0  0  0
    8.8045    0.0000    0.0000 C   0  0  0  0  0  4  0  0  0  0  0  0
    7.2543   -0.1817    0.0000 O   0  0  0  0  0  2  0  0  0  0  0  0
  1  4  1  0  0  0  0 
  1  6  1  0  0  0  0 
  1  2  1  0  0  0  0 
  2  3  1  0  0  0  0 
  2  7  1  0  0  0  0 
  3  5  1  0  0  0  0 
  3  9  1  6  0  0  0 
  4  5  1  0  0  0  0 
  6  8  1  0  0  0  0 
  7  8  2  0  0  0  0 
  7 10  1  0  0  0  0 
  9 12  1  0  0  0  0 
 10 11  1  0  0  0  0 
 11 18  1  0  0  0  0 
 12 13  2  0  0  0  0 
 12 14  1  0  0  0  0 
 14 15  1  0  0  0  0 
 14 16  2  0  0  0  0 
 16 17  1  0  0  0  0 
 18 19  1  0  0  0  0 
 18 20  2  0  0  0  0 
 19 21  1  0  0  0  0 
 19 25  1  6  0  0  0 
 19 26  1  0  0  0  0 
 21 22  1  0  0  0  0 
 21 23  1  1  0  0  0 
 22 24  1  0  0  0  0 
 26 27  1  0  0  0  0 
 26 28  1  0  0  0  0 
 26 29  1  0  0  0  0 
M  END
> <CDK Fingerprint>
AtCYBUkCAgBqAQiCBAMBQREUQgIABDEC4TAEAIMAACASAwBgRIwAAAACAAkIAADZbAYyBkSQEAIgAEAjwUAQQAAABAQOUgHAAAQAIVagUNgBAAhTIGBEUCAhMgQCAEIogQhIRwABAACBCAggQBAgB7UACYAE8HvACEpoRQBCACA=

> <ActivityOutcome_CPDBAS_Rat>
active

> <TD50_Rat_mmol>
0.000945

$$$$

  CDK     0721101958

 10 10  0  0  0  0  0  0  0  0999 V2000
    0.0000    0.0000    0.0000 C   0  0  0  0  0  4  0  0  0  0  0  0
    0.6640   -1.1546    0.0000 C   0  0  0  0  0  4  0  0  0  0  0  0
    0.0000   -2.3031    0.0000 C   0  0  0  0  0  4  0  0  0  0  0  0
    1.9921   -1.1546    0.0000 C   0  0  0  0  0  4  0  0  0  0  0  0
    2.6561    0.0000    0.0000 C   0  0  0  0  0  4  0  0  0  0  0  0
    3.9901    0.0000    0.0000 C   0  0  0  0  0  4  0  0  0  0  0  0
    4.6542   -1.1546    0.0000 C   0  0  0  0  0  4  0  0  0  0  0  0
    3.9901   -2.3031    0.0000 C   0  0  0  0  0  4  0  0  0  0  0  0
    2.6561   -2.3031    0.0000 C   0  0  0  0  0  4  0  0  0  0  0  0
    5.9822   -1.1546    0.0000 C   0  0  0  0  0  4  0  0  0  0  0  0
  1  2  1  0  0  0  0 
  2  3  2  0  0  0  0 
  4  2  1  6  0  0  0 
  4  5  1  0  0  0  0 
  4  9  1  0  0  0  0 
  5  6  1  0  0  0  0 
  6  7  1  0  0  0  0 
  7  8  2  0  0  0  0 
  7 10  1  0  0  0  0 
  8  9  1  0  0  0  0 
M  END
> <CDK Fingerprint>
QAAAAAAAAAAAAAAAAAAAAAAAAoAEQABAAAAAAAAAAAABCMAAIAAACAAAAAAAAAAgAAAAAAAQAAAAAABAAAQAAAAAABQAAAAAAAAAAAABAAAAAAAAAAAAAAAAAAAAAAAAAAAAAAAAAAAAAAAAEAAAAAAAAACACAAAAABCEAAAIA==

> <ActivityOutcome_CPDBAS_Rat>
active

> <TD50_Rat_mmol>
1.5

$$$$

  CDK     0721101958

 27 30  0  0  0  0  0  0  0  0999 V2000
    6.8295   -3.7020    0.0000 C   0  0  0  0  0  4  0  0  0  0  0  0
    3.3573   -5.6679    0.0000 C   0  0  0  0  0  4  0  0  0  0  0  0
    6.8295   -5.0296    0.0000 C   0  0  0  0  0  4  0  0  0  0  0  0
    4.5190   -5.0296    0.0000 C   0  0  0  0  0  4  0  0  0  0  0  0
    5.6934   -5.6679    0.0000 C   0  0  0  0  0  4  0  0  0  0  0  0
    8.1316   -3.2680    0.0000 C   0  0  0  0  0  4  0  0  0  0  0  0
    3.3573   -7.0210    0.0000 C   0  0  0  0  0  4  0  0  0  0  0  0
    5.6934   -3.0382    0.0000 C   0  0  0  0  0  4  0  0  0  0  0  0
    4.5190   -3.7020    0.0000 C   0  0  0  0  0  4  0  0  0  0  0  0
    8.1316   -5.4508    0.0000 C   0  0  0  0  0  4  0  0  0  0  0  0
    2.1701   -5.0296    0.0000 C   0  0  0  0  0  4  0  0  0  0  0  0
    8.8847   -4.3402    0.0000 C   0  0  0  0  0  4  0  0  0  0  0  0
    5.6934   -7.0210    0.0000 C   0  0  0  0  0  4  0  0  0  0  0  0
   11.6165   -1.3787    0.0000 C   0  0  0  0  0  4  0  0  0  0  0  0
    4.5062   -7.6720    0.0000 C   0  0  0  0  0  4  0  0  0  0  0  0
    2.1701   -7.6848    0.0000 C   0  0  0  0  0  4  0  0  0  0  0  0
   11.6165    0.0000    0.0000 O   0  0  0  0  0  2  0  0  0  0  0  0
    8.1316   -1.9276    0.0000 C   0  0  0  0  0  4  0  0  0  0  0  0
    9.3188   -1.2765    0.0000 C   0  0  0  0  0  4  0  0  0  0  0  0
   10.4038   -1.9914    0.0000 C   0  0  0  0  0  4  0  0  0  0  0  0
    6.8295   -2.4254    0.0000 C   0  0  0  0  0  4  0  0  0  0  0  0
    1.0212   -5.6679    0.0000 C   0  0  0  0  0  4  0  0  0  0  0  0
    1.0212   -7.0210    0.0000 C   0  0  0  0  0  4  0  0  0  0  0  0
    3.3573   -4.4168    0.0000 C   0  0  0  0  0  4  0  0  0  0  0  0
   12.7654   -2.0552    0.0000 O   0  0  0  0  0  2  0  0  0  0  0  0
    0.0000   -7.6593    0.0000 O   0  0  0  0  0  2  0  0  0  0  0  0
    6.9444   -1.2765    0.0000 C   0  0  0  0  0  4  0  0  0  0  0  0
  1  3  1  0  0  0  0 
  1  6  1  0  0  0  0 
  1  8  1  0  0  0  0 
  1 21  1  1  0  0  0 
  2  4  1  0  0  0  0 
  2  7  1  0  0  0  0 
  2 11  1  0  0  0  0 
  2 24  1  1  0  0  0 
  3  5  1  0  0  0  0 
  3 10  1  0  0  0  0 
  4  9  1  0  0  0  0 
  4  5  1  0  0  0  0 
  5 13  1  0  0  0  0 
  6 12  1  0  0  0  0 
  6 18  1  0  0  0  0 
  7 16  1  0  0  0  0 
  7 15  1  0  0  0  0 
  8  9  1  0  0  0  0 
 10 12  1  0  0  0  0 
 11 22  1  0  0  0  0 
 13 15  1  0  0  0  0 
 14 20  1  0  0  0  0 
 14 17  2  0  0  0  0 
 14 25  1  0  0  0  0 
 16 23  1  0  0  0  0 
 18 19  1  0  0  0  0 
 18 27  1  6  0  0  0 
 19 20  1  0  0  0  0 
 22 23  1  0  0  0  0 
 23 26  1  6  0  0  0 
M  END
> <CDK Fingerprint>
AhEABAAAAAAAAAAAAEAAAAAAAAAAAQEAYAAAAAAAAAAAIAAAECAAIAAAAAAAAAAAIEBAAAAAAAAAAAAAAAAABAAAAAEAAAAAAAAAAAAAABAAAAAAAAAAQAAAAEAAAAAAAAAQAAEAAAAAAFAQAAAAAAAEAAAA

> <ActivityOutcome_CPDBAS_Rat>
inactive

$$$$

  CDK     0721101958

 21 23  0  0  0  0  0  0  0  0999 V2000
    6.4864    0.0000    0.0000 O   0  0  0  0  0  2  0  0  0  0  0  0
    7.4750   -0.8877    0.0000 C   0  0  0  0  0  4  0  0  0  0  0  0
    8.7461   -0.4741    0.0000 O   0  0  0  0  0  2  0  0  0  0  0  0
    7.2027   -2.1890    0.0000 C   0  0  0  0  0  4  0  0  0  0  0  0
    5.9921   -2.7338    0.0000 N   0  0  0  0  0  3  0  0  0  0  0  0
    6.1233   -4.0553    0.0000 N   0  0  0  0  0  3  0  0  0  0  0  0
    7.4246   -4.3277    0.0000 C   0  0  0  0  0  4  0  0  0  0  0  0
    8.0904   -3.1777    0.0000 C   0  0  0  0  0  4  0  0  0  0  0  0
    9.4220   -3.1777    0.0000 C   0  0  0  0  0  4  0  0  0  0  0  0
   10.0878   -4.3277    0.0000 C   0  0  0  0  0  4  0  0  0  0  0  0
    9.4220   -5.4777    0.0000 C   0  0  0  0  0  4  0  0  0  0  0  0
    8.0904   -5.4777    0.0000 C   0  0  0  0  0  4  0  0  0  0  0  0
    5.1347   -4.9430    0.0000 C   0  0  0  0  0  4  0  0  0  0  0  0
    3.8535   -4.6000    0.0000 C   0  0  0  0  0  4  0  0  0  0  0  0
    2.9154   -5.5382    0.0000 C   0  0  0  0  0  4  0  0  0  0  0  0
    1.6241   -5.1952    0.0000 C   0  0  0  0  0  4  0  0  0  0  0  0
    1.2811   -3.9141    0.0000 C   0  0  0  0  0  4  0  0  0  0  0  0
    2.2294   -2.9658    0.0000 C   0  0  0  0  0  4  0  0  0  0  0  0
    3.5105   -3.3088    0.0000 C   0  0  0  0  0  4  0  0  0  0  0  0
    4.4487   -2.3706    0.0000 Cl  0  0  0  0  0  1  0  0  0  0  0  0
    0.0000   -3.5610    0.0000 Cl  0  0  0  0  0  1  0  0  0  0  0  0
  1  2  1  0  0  0  0 
  2  3  2  0  0  0  0 
  2  4  1  0  0  0  0 
  4  5  2  0  0  0  0 
  4  8  1  0  0  0  0 
  5  6  1  0  0  0  0 
  6  7  1  0  0  0  0 
  6 13  1  0  0  0  0 
  7  8  2  0  0  0  0 
  7 12  1  0  0  0  0 
  8  9  1  0  0  0  0 
  9 10  2  0  0  0  0 
 10 11  1  0  0  0  0 
 11 12  2  0  0  0  0 
 13 14  1  0  0  0  0 
 14 15  2  0  0  0  0 
 14 19  1  0  0  0  0 
 15 16  1  0  0  0  0 
 16 17  2  0  0  0  0 
 17 18  1  0  0  0  0 
 17 21  1  0  0  0  0 
 18 19  2  0  0  0  0 
 19 20  1  0  0  0  0 
M  END
> <CDK Fingerprint>
QIhBEgCYAAFDQNE6AAAhAQAiACCAAIIAGAqAkAAoiSQhBBDuAQgABAAMAABEAMCAKQQQAABCAnBIYAEIQalYURJFAICAIwAAIAAAQQAJgAQAhQECAwRAEAGBsAIAIMgAIlhIAtQgBkAFABGPQAYIiGCAAACA2ArCCAGCAggDFUA=

> <ActivityOutcome_CPDBAS_Rat>
inactive

$$$$

  CDK     0721101958

 23 25  0  0  0  0  0  0  0  0999 V2000
    3.3708   -3.1309    0.0000 C   0  0  0  0  0  4  0  0  0  0  0  0
    3.3708   -1.8054    0.0000 C   0  0  0  0  0  4  0  0  0  0  0  0
    4.5135   -3.7936    0.0000 C   0  0  0  0  0  4  0  0  0  0  0  0
    2.1025   -3.5536    0.0000 S   0  0  0  0  0  2  0  0  0  0  0  0
    4.5135   -1.1426    0.0000 S   0  0  0  0  0  6  0  0  0  0  0  0
    2.1025   -1.3826    0.0000 C   0  0  0  0  0  4  0  0  0  0  0  0
    5.6790   -3.1309    0.0000 C   0  0  0  0  0  4  0  0  0  0  0  0
    4.5135   -5.1305    0.0000 O   0  0  0  0  0  2  0  0  0  0  0  0
    1.3255   -2.4681    0.0000 C   0  0  0  0  0  4  0  0  0  0  0  0
    5.6790   -1.8054    0.0000 N   0  0  0  0  0  3  0  0  0  0  0  0
    3.8507    0.0000    0.0000 O   0  0  0  0  0  2  0  0  0  0  0  0
    5.1762    0.0000    0.0000 O   0  0  0  0  0  2  0  0  0  0  0  0
    6.8216   -3.7936    0.0000 C   0  0  0  0  0  4  0  0  0  0  0  0
    0.0000   -2.4681    0.0000 Cl  0  0  0  0  0  1  0  0  0  0  0  0
    6.8216   -1.1426    0.0000 C   0  0  0  0  0  4  0  0  0  0  0  0
    7.9757   -3.1309    0.0000 N   0  0  0  0  0  3  0  0  0  0  0  0
    6.8216   -5.1305    0.0000 O   0  0  0  0  0  2  0  0  0  0  0  0
    9.1183   -3.7936    0.0000 C   0  0  0  0  0  4  0  0  0  0  0  0
   10.2724   -3.1309    0.0000 C   0  0  0  0  0  4  0  0  0  0  0  0
    9.1183   -5.1305    0.0000 N   0  0  0  0  0  3  0  0  0  0  0  0
   11.4265   -3.7936    0.0000 C   0  0  0  0  0  4  0  0  0  0  0  0
   10.2724   -5.7932    0.0000 C   0  0  0  0  0  4  0  0  0  0  0  0
   11.4265   -5.1305    0.0000 C   0  0  0  0  0  4  0  0  0  0  0  0
  1  2  2  0  0  0  0 
  1  3  1  0  0  0  0 
  1  4  1  0  0  0  0 
  2  5  1  0  0  0  0 
  2  6  1  0  0  0  0 
  3  7  2  0  0  0  0 
  3  8  1  0  0  0  0 
  4  9  1  0  0  0  0 
  5 10  1  0  0  0  0 
  5 11  2  0  0  0  0 
  5 12  2  0  0  0  0 
  6  9  2  0  0  0  0 
  7 13  1  0  0  0  0 
  7 10  1  0  0  0  0 
  9 14  1  0  0  0  0 
 10 15  1  0  0  0  0 
 13 16  1  0  0  0  0 
 13 17  2  0  0  0  0 
 16 18  1  0  0  0  0 
 18 19  1  0  0  0  0 
 18 20  2  0  0  0  0 
 19 21  2  0  0  0  0 
 20 22  1  0  0  0  0 
 21 23  1  0  0  0  0 
 22 23  2  0  0  0  0 
M  END
> <CDK Fingerprint>
IG0LBxCZPyZqIBIvAQEoYhBBGA64B8pRFXkkUwgMqiIHIA/gQGQEgxoekH5gDGoMbryGgiAkEjRyCcgQhA6JueVTwKAzwPmSwFho4CSiCPAUgXAigAFQkCGBeGQkUsPN6yRAM8GnhimLiNGoVCTohoiQMACEcO9keYaBlDKCBBg=

> <ActivityOutcome_CPDBAS_Rat>
inactive

$$$$

  CDK     0721101958

 29 31  0  0  0  0  0  0  0  0999 V2000
    5.7467   -7.9746    0.0000 C   0  0  0  0  0  4  0  0  0  0  0  0
    5.7467   -6.6629    0.0000 C   0  0  0  0  0  4  0  0  0  0  0  0
    4.6120   -5.9966    0.0000 C   0  0  0  0  0  4  0  0  0  0  0  0
    9.2239   -0.6871    0.0000 C   0  0  0  0  0  4  0  0  0  0  0  0
    3.4564   -4.0081    0.0000 C   0  0  0  0  0  4  0  0  0  0  0  0
    6.9231   -8.6305    0.0000 C   0  0  0  0  0  4  0  0  0  0  0  0
    4.6120   -8.6305    0.0000 C   0  0  0  0  0  4  0  0  0  0  0  0
    4.6120   -4.6640    0.0000 O   0  0  0  0  0  2  0  0  0  0  0  0
    6.9231   -5.9966    0.0000 C   0  0  0  0  0  4  0  0  0  0  0  0
    9.2239   -1.9989    0.0000 O   0  0  0  0  0  2  0  0  0  0  0  0
    8.0683   -7.9746    0.0000 C   0  0  0  0  0  4  0  0  0  0  0  0
    8.0683   -0.0312    0.0000 C   0  0  0  0  0  4  0  0  0  0  0  0
    6.9231   -4.6640    0.0000 C   0  0  0  0  0  4  0  0  0  0  0  0
    3.4564   -6.6837    0.0000 C   0  0  0  0  0  4  0  0  0  0  0  0
    8.0683   -6.6525    0.0000 C   0  0  0  0  0  4  0  0  0  0  0  0
    8.0683   -2.6652    0.0000 C   0  0  0  0  0  4  0  0  0  0  0  0
    3.4564   -2.6652    0.0000 O   0  0  0  0  0  2  0  0  0  0  0  0
    6.9231   -0.6871    0.0000 C   0  0  0  0  0  4  0  0  0  0  0  0
   10.4107   -0.0208    0.0000 O   0  0  0  0  0  2  0  0  0  0  0  0
    3.4564   -7.9955    0.0000 C   0  0  0  0  0  4  0  0  0  0  0  0
    6.9231   -1.9989    0.0000 C   0  0  0  0  0  4  0  0  0  0  0  0
    2.3112   -4.6744    0.0000 C   0  0  0  0  0  4  0  0  0  0  0  0
    8.0683   -4.0081    0.0000 C   0  0  0  0  0  4  0  0  0  0  0  0
    5.7467    0.0000    0.0000 O   0  0  0  0  0  2  0  0  0  0  0  0
    9.2239   -5.9758    0.0000 C   0  0  0  0  0  4  0  0  0  0  0  0
    2.3112   -8.6826    0.0000 C   0  0  0  0  0  4  0  0  0  0  0  0
    1.1556   -4.0185    0.0000 C   0  0  0  0  0  4  0  0  0  0  0  0
    2.3112   -6.0070    0.0000 C   0  0  0  0  0  4  0  0  0  0  0  0
    0.0000   -4.6952    0.0000 C   0  0  0  0  0  4  0  0  0  0  0  0
  1  2  1  0  0  0  0 
  1  6  1  0  0  0  0 
  1  7  2  0  0  0  0 
  2  3  1  0  0  0  0 
  2  9  1  0  0  0  0 
  3  8  1  6  0  0  0 
  3 14  1  0  0  0  0 
  4 10  1  0  0  0  0 
  4 19  2  0  0  0  0 
  4 12  1  0  0  0  0 
  5  8  1  0  0  0  0 
  5 17  2  0  0  0  0 
  5 22  1  0  0  0  0 
  6 11  2  0  0  0  0 
  7 20  1  0  0  0  0 
  9 13  1  1  0  0  0 
  9 15  1  0  0  0  0 
 10 16  1  0  0  0  0 
 11 15  1  0  0  0  0 
 12 18  1  0  0  0  0 
 13 23  1  0  0  0  0 
 14 20  1  0  0  0  0 
 15 25  1  1  0  0  0 
 16 23  1  6  0  0  0 
 16 21  1  0  0  0  0 
 18 21  1  0  0  0  0 
 18 24  1  1  0  0  0 
 20 26  1  6  0  0  0 
 22 27  1  0  0  0  0 
 22 28  1  1  0  0  0 
 27 29  1  0  0  0  0 
M  END
> <CDK Fingerprint>
AMCAAAgDAgAIIAACFQAEBBIkAAaBBEAAwAAABMABAAABUQjgAKAAAAgAAAEgEABSJAMgAAgAEJBEABAyQEQEAAAEACAMAgGASAwEQEYkEQAAQAAQAQAEVABBEAQAAAIIBABIBRAAQAAAAABAQRAEAwAAAAAE2DiAAAAIwAaABCA=

> <ActivityOutcome_CPDBAS_Rat>
inactive

$$$$

  CDK     0721101958

 26 28  0  0  0  0  0  0  0  0999 V2000
    3.9983   -6.0382    0.0000 C   0  0  0  0  0  4  0  0  0  0  0  0
    4.6674   -4.8958    0.0000 C   0  0  0  0  0  4  0  0  0  0  0  0
    2.6601   -6.0382    0.0000 C   0  0  0  0  0  4  0  0  0  0  0  0
    4.6674   -7.1805    0.0000 C   0  0  0  0  0  4  0  0  0  0  0  0
    5.9892   -4.8958    0.0000 C   0  0  0  0  0  4  0  0  0  0  0  0
    2.0073   -4.8958    0.0000 N   0  0  0  0  0  3  0  0  0  0  0  0
    5.9892   -7.1805    0.0000 C   0  0  0  0  0  4  0  0  0  0  0  0
    6.6583   -6.0382    0.0000 C   0  0  0  0  0  4  0  0  0  0  0  0
    6.6583   -3.7371    0.0000 O   0  0  0  0  0  2  0  0  0  0  0  0
    0.6691   -4.8958    0.0000 C   0  0  0  0  0  4  0  0  0  0  0  0
    2.6601   -3.7371    0.0000 C   0  0  0  0  0  4  0  0  0  0  0  0
    7.9802   -3.7371    0.0000 C   0  0  0  0  0  4  0  0  0  0  0  0
    0.0000   -3.7371    0.0000 C   0  0  0  0  0  4  0  0  0  0  0  0
    2.0073   -2.5785    0.0000 C   0  0  0  0  0  4  0  0  0  0  0  0
    8.6493   -2.5785    0.0000 C   0  0  0  0  0  4  0  0  0  0  0  0
    0.6691   -2.5785    0.0000 C   0  0  0  0  0  4  0  0  0  0  0  0
    9.9875   -2.5785    0.0000 C   0  0  0  0  0  4  0  0  0  0  0  0
   10.6403   -1.4361    0.0000 N   0  0  0  0  0  3  0  0  0  0  0  0
   11.9785   -1.4361    0.0000 C   0  0  0  0  0  4  0  0  0  0  0  0
   12.7618   -0.3590    0.0000 N   0  0  0  0  0  3  0  0  0  0  0  0
   12.7618   -2.4969    0.0000 N   0  0  0  0  0  3  0  0  0  0  0  0
   14.0347   -0.7507    0.0000 C   0  0  0  0  0  4  0  0  0  0  0  0
   14.0347   -2.0889    0.0000 N   0  0  0  0  0  3  0  0  0  0  0  0
   12.3375   -3.7861    0.0000 C   0  0  0  0  0  4  0  0  0  0  0  0
   15.0955    0.0000    0.0000 C   0  0  0  0  0  4  0  0  0  0  0  0
   16.3194   -0.5222    0.0000 O   0  0  0  0  0  2  0  0  0  0  0  0
  1  2  2  0  0  0  0 
  1  3  1  0  0  0  0 
  1  4  1  0  0  0  0 
  2  5  1  0  0  0  0 
  3  6  1  0  0  0  0 
  4  7  2  0  0  0  0 
  5  8  2  0  0  0  0 
  5  9  1  0  0  0  0 
  6 10  1  0  0  0  0 
  6 11  1  0  0  0  0 
  7  8  1  0  0  0  0 
  9 12  1  0  0  0  0 
 10 13  1  0  0  0  0 
 11 14  1  0  0  0  0 
 12 15  1  0  0  0  0 
 13 16  1  0  0  0  0 
 14 16  1  0  0  0  0 
 15 17  1  0  0  0  0 
 17 18  1  0  0  0  0 
 18 19  1  0  0  0  0 
 19 20  2  0  0  0  0 
 19 21  1  0  0  0  0 
 20 22  1  0  0  0  0 
 21 23  1  0  0  0  0 
 21 24  1  0  0  0  0 
 22 25  1  0  0  0  0 
 22 23  2  0  0  0  0 
 25 26  1  0  0  0  0 
M  END
> <CDK Fingerprint>
IQAQgyCYCgXWGEACADEpBAZkBAAAAAoIgAAEYAAIhCyAGUJhACABkIIAQAgABUAQIQIQJAKCgBFAIEQJwIgAIINGFCgVIAJAAQBiBSAEIICAQAACIAFAQCGgEBCAAIAALgAgAFIhpDQdCAAmWBAAAHACAgCAI0DhAAQAAEFiCAA=

> <ActivityOutcome_CPDBAS_Rat>
active

> <TD50_Rat_mmol>
1.33

$$$$

  CDK     0721101958

 19 18  0  0  0  0  0  0  0  0999 V2000
    2.3016   -3.3167    0.0000 O   0  0  0  0  0  2  0  0  0  0  0  0
    3.4562   -3.9832    0.0000 C   0  0  0  0  0  4  0  0  0  0  0  0
    4.6031   -3.3167    0.0000 C   0  0  0  0  0  4  0  0  0  0  0  0
    5.7578   -3.9832    0.0000 S   0  0  0  0  0  2  0  0  0  0  0  0
    5.7578   -5.3161    0.0000 P   0  0  0  0  0  5  0  0  0  0  0  0
    4.4249   -5.3161    0.0000 O   0  0  0  0  0  2  0  0  0  0  0  0
    7.0829   -5.3161    0.0000 O   0  0  0  0  0  2  0  0  0  0  0  0
    7.7494   -4.1614    0.0000 C   0  0  0  0  0  4  0  0  0  0  0  0
    5.7578   -6.6412    0.0000 O   0  0  0  0  0  2  0  0  0  0  0  0
    4.6031   -7.3077    0.0000 C   0  0  0  0  0  4  0  0  0  0  0  0
    4.6031   -1.9916    0.0000 C   0  0  0  0  0  4  0  0  0  0  0  0
    3.4562   -1.3251    0.0000 C   0  0  0  0  0  4  0  0  0  0  0  0
    3.4562    0.0000    0.0000 O   0  0  0  0  0  2  0  0  0  0  0  0
    2.3016   -1.9916    0.0000 O   0  0  0  0  0  2  0  0  0  0  0  0
    1.1547   -1.3251    0.0000 C   0  0  0  0  0  4  0  0  0  0  0  0
    0.0000   -1.9916    0.0000 C   0  0  0  0  0  4  0  0  0  0  0  0
    3.4562   -5.3161    0.0000 O   0  0  0  0  0  2  0  0  0  0  0  0
    2.3016   -5.9748    0.0000 C   0  0  0  0  0  4  0  0  0  0  0  0
    2.3016   -7.3077    0.0000 C   0  0  0  0  0  4  0  0  0  0  0  0
  1  2  2  0  0  0  0 
  2  3  1  0  0  0  0 
  2 17  1  0  0  0  0 
  3  4  1  0  0  0  0 
  3 11  1  0  0  0  0 
  4  5  1  0  0  0  0 
  5  6  2  0  0  0  0 
  5  7  1  0  0  0  0 
  5  9  1  0  0  0  0 
  7  8  1  0  0  0  0 
  9 10  1  0  0  0  0 
 11 12  1  0  0  0  0 
 12 13  2  0  0  0  0 
 12 14  1  0  0  0  0 
 14 15  1  0  0  0  0 
 15 16  1  0  0  0  0 
 17 18  1  0  0  0  0 
 18 19  1  0  0  0  0 
M  END
> <CDK Fingerprint>
AIgAACAAgAAEAAoCEAAAABAAAAAACAAogAAAwYAAAAoURAFgAIgCQEQAAAAABaTQIAICFASAAAAAAAAoQAAAQCQBAEAIAAAAAAAAAEACAAAAAEACgAggQCYEEQAAAAMABABACAQBAAgCIBABABYAASAgACAAURAAAAAAAAAAgBE=

> <ActivityOutcome_CPDBAS_Rat>
inactive

$$$$

  CDK     0721101958

 19 18  0  0  0  0  0  0  0  0999 V2000
    2.3016   -3.3167    0.0000 O   0  0  0  0  0  2  0  0  0  0  0  0
    3.4562   -3.9832    0.0000 C   0  0  0  0  0  4  0  0  0  0  0  0
    4.6031   -3.3167    0.0000 C   0  0  0  0  0  4  0  0  0  0  0  0
    5.7578   -3.9832    0.0000 S   0  0  0  0  0  2  0  0  0  0  0  0
    5.7578   -5.3161    0.0000 P   0  0  0  0  0  5  0  0  0  0  0  0
    4.4249   -5.3161    0.0000 S   0  0  0  0  0  2  0  0  0  0  0  0
    7.0829   -5.3161    0.0000 O   0  0  0  0  0  2  0  0  0  0  0  0
    7.7494   -4.1614    0.0000 C   0  0  0  0  0  4  0  0  0  0  0  0
    5.7578   -6.6412    0.0000 O   0  0  0  0  0  2  0  0  0  0  0  0
    4.6031   -7.3077    0.0000 C   0  0  0  0  0  4  0  0  0  0  0  0
    4.6031   -1.9916    0.0000 C   0  0  0  0  0  4  0  0  0  0  0  0
    3.4562   -1.3251    0.0000 C   0  0  0  0  0  4  0  0  0  0  0  0
    3.4562    0.0000    0.0000 O   0  0  0  0  0  2  0  0  0  0  0  0
    2.3016   -1.9916    0.0000 O   0  0  0  0  0  2  0  0  0  0  0  0
    1.1547   -1.3251    0.0000 C   0  0  0  0  0  4  0  0  0  0  0  0
    0.0000   -1.9916    0.0000 C   0  0  0  0  0  4  0  0  0  0  0  0
    3.4562   -5.3161    0.0000 O   0  0  0  0  0  2  0  0  0  0  0  0
    2.3016   -5.9748    0.0000 C   0  0  0  0  0  4  0  0  0  0  0  0
    2.3016   -7.3077    0.0000 C   0  0  0  0  0  4  0  0  0  0  0  0
  1  2  2  0  0  0  0 
  2  3  1  0  0  0  0 
  2 17  1  0  0  0  0 
  3  4  1  0  0  0  0 
  3 11  1  0  0  0  0 
  4  5  1  0  0  0  0 
  5  6  2  0  0  0  0 
  5  7  1  0  0  0  0 
  5  9  1  0  0  0  0 
  7  8  1  0  0  0  0 
  9 10  1  0  0  0  0 
 11 12  1  0  0  0  0 
 12 13  2  0  0  0  0 
 12 14  1  0  0  0  0 
 14 15  1  0  0  0  0 
 15 16  1  0  0  0  0 
 17 18  1  0  0  0  0 
 18 19  1  0  0  0  0 
M  END
> <CDK Fingerprint>
AIgAAiAAgAAEAAoCAAAAABAAAAAAAACogAAAQ4AAAAAURQFgAIACAEQAAAAQAaTQYAICFASAAAAAAAAoQAAAACQBAEAAAAABAAAAAEACABgAAEACgBggQCYFEAIAAAIABABECAQBAAgCIBABABICASAgACAAUBAAAAAAAAAAABE=

> <ActivityOutcome_CPDBAS_Rat>
inactive

$$$$

  CDK     0721101958

  8  8  0  0  0  0  0  0  0  0999 V2000
    0.0000   -1.1545    0.0000 O   0  0  0  0  0  2  0  0  0  0  0  0
    1.3300   -1.1545    0.0000 C   0  0  0  0  0  4  0  0  0  0  0  0
    1.9950    0.0000    0.0000 C   0  0  0  0  0  4  0  0  0  0  0  0
    3.3250    0.0000    0.0000 C   0  0  0  0  0  4  0  0  0  0  0  0
    3.9900   -1.1545    0.0000 C   0  0  0  0  0  4  0  0  0  0  0  0
    5.3201   -1.1545    0.0000 O   0  0  0  0  0  2  0  0  0  0  0  0
    3.3250   -2.3036    0.0000 N   0  0  0  0  0  3  0  0  0  0  0  0
    1.9950   -2.3036    0.0000 N   0  0  0  0  0  3  0  0  0  0  0  0
  1  2  2  0  0  0  0 
  2  3  1  0  0  0  0 
  2  8  1  0  0  0  0 
  3  4  2  0  0  0  0 
  4  5  1  0  0  0  0 
  5  6  2  0  0  0  0 
  5  7  1  0  0  0  0 
  7  8  1  0  0  0  0 
M  END
> <CDK Fingerprint>
QAAAAAAAAAIAAAQAAIBAAAgAAAAgAAAAAgAAAAAAQAIAgGAAAAAAAAAAAAAAAAAgAAAAAAAQAAAAAAAAAAECQAAAAABAAAAAAAAAAAAAAEAAAAAAAAAEAAAAAAAAAAAAAEAgAAAACAAAAAIABAAAAAAAAIBwCAAAAAAAAAMAAA==

> <ActivityOutcome_CPDBAS_Rat>
inactive

$$$$

  CDK     0721101958

 12 11  0  0  0  0  0  0  0  0999 V2000
    1.3263   -2.2989    0.0000 C   0  0  0  0  0  4  0  0  0  0  0  0
    2.0015   -3.4403    0.0000 C   0  0  0  0  0  4  0  0  0  0  0  0
    1.3263   -4.5978    0.0000 C   0  0  0  0  0  4  0  0  0  0  0  0
    2.0015   -5.7392    0.0000 C   0  0  0  0  0  4  0  0  0  0  0  0
    1.3263   -6.8967    0.0000 C   0  0  0  0  0  4  0  0  0  0  0  0
    2.0015   -1.1414    0.0000 C   0  0  0  0  0  4  0  0  0  0  0  0
    3.3278   -3.4403    0.0000 O   0  0  0  0  0  2  0  0  0  0  0  0
    0.0000   -4.5978    0.0000 O   0  0  0  0  0  2  0  0  0  0  0  0
    3.3278   -5.7392    0.0000 O   0  0  0  0  0  2  0  0  0  0  0  0
    2.0015   -8.0382    0.0000 O   0  0  0  0  0  2  0  0  0  0  0  0
    1.3263    0.0000    0.0000 O   0  0  0  0  0  2  0  0  0  0  0  0
    0.0000   -2.2989    0.0000 O   0  0  0  0  0  2  0  0  0  0  0  0
  1  2  1  0  0  0  0 
  1  6  1  0  0  0  0 
  1 12  1  6  0  0  0 
  2  3  1  0  0  0  0 
  2  7  1  1  0  0  0 
  3  4  1  0  0  0  0 
  3  8  1  1  0  0  0 
  4  5  1  0  0  0  0 
  4  9  1  6  0  0  0 
  5 10  1  0  0  0  0 
  6 11  1  0  0  0  0 
M  END
> <CDK Fingerprint>
AgQAAAAAAAAAAAAAAEAAAAAAAAAAAAEAYAAAAAAAAAAAAAAAGCAAIgAAAAAAAAAAAEBgAAAAAAAAAAAAAAAAAAAAAAAAAAAAAAAAAAAAABAAAAAAAAAAAAAAAAAAAAAAAAAQAAAAAAAAAAAwAAAAAAAAAAAA

> <ActivityOutcome_CPDBAS_Rat>
inactive

$$$$

  CDK     0721101958

 18 17  0  0  0  0  0  0  0  0999 V2000
    1.9759   -3.4346    0.0000 C   0  0  0  0  0  4  0  0  0  0  0  0
    2.6483   -4.5932    0.0000 C   0  0  0  0  0  4  0  0  0  0  0  0
    1.9759   -5.7518    0.0000 C   0  0  0  0  0  4  0  0  0  0  0  0
    2.6483   -6.9105    0.0000 C   0  0  0  0  0  4  0  0  0  0  0  0
    1.9759   -8.0484    0.0000 C   0  0  0  0  0  4  0  0  0  0  0  0
    2.6483   -2.2966    0.0000 C   0  0  0  0  0  4  0  0  0  0  0  0
    3.9828   -4.5932    0.0000 O   0  0  0  0  0  2  0  0  0  0  0  0
    0.6414   -5.7518    0.0000 O   0  0  0  0  0  2  0  0  0  0  0  0
    3.9828   -6.9105    0.0000 O   0  0  0  0  0  2  0  0  0  0  0  0
    2.6483   -9.2071    0.0000 N   0  0  0  0  0  3  0  0  0  0  0  0
    1.9759   -1.1380    0.0000 N   0  0  0  0  0  3  0  0  0  0  0  0
    0.6414   -3.4346    0.0000 O   0  0  0  0  0  2  0  0  0  0  0  0
    2.6380    0.0000    0.0000 C   0  0  0  0  0  4  0  0  0  0  0  0
    3.9828    0.0000    0.0000 C   0  0  0  0  0  4  0  0  0  0  0  0
    4.6242   -1.1380    0.0000 Cl  0  0  0  0  0  1  0  0  0  0  0  0
    1.9759  -10.3450    0.0000 C   0  0  0  0  0  4  0  0  0  0  0  0
    0.6414  -10.3450    0.0000 C   0  0  0  0  0  4  0  0  0  0  0  0
    0.0000   -9.2071    0.0000 Cl  0  0  0  0  0  1  0  0  0  0  0  0
  1  2  1  0  0  0  0 
  1  6  1  0  0  0  0 
  1 12  1  6  0  0  0 
  2  3  1  0  0  0  0 
  2  7  1  1  0  0  0 
  3  4  1  0  0  0  0 
  3  8  1  1  0  0  0 
  4  5  1  0  0  0  0 
  4  9  1  6  0  0  0 
  5 10  1  0  0  0  0 
  6 11  1  0  0  0  0 
 10 16  1  0  0  0  0 
 11 13  1  0  0  0  0 
 13 14  1  0  0  0  0 
 14 15  1  0  0  0  0 
 16 17  1  0  0  0  0 
 17 18  1  0  0  0  0 
M  END
> <CDK Fingerprint>
EAAAAAAAAgAAAgABAAAAAAIAAAAAAEAAAAAAAAAAAiEA4AAAAAAAAIAAAAAAGCAAMgACAAAAAABAAMAkAAEAAAAIAAAAQBAAAAAAAACQAQAAQuAAQAAABBAAAAAAAAAAAEAAAQAAAIgIIAAQAAAAAAAACgBxAAgAAAAAAgAA

> <ActivityOutcome_CPDBAS_Rat>
inactive

$$$$

  CDK     0721101958

 16 18  0  0  0  0  0  0  0  0999 V2000
    6.9407   -0.5434    0.0000 C   0  0  0  0  0  4  0  0  0  0  0  0
    5.9554   -1.4273    0.0000 N   0  0  0  0  0  3  0  0  0  0  0  0
    4.6513   -1.1519    0.0000 C   0  0  0  0  0  4  0  0  0  0  0  0
    3.9920   -2.3039    0.0000 C   0  0  0  0  0  4  0  0  0  0  0  0
    2.6589   -2.3039    0.0000 C   0  0  0  0  0  4  0  0  0  0  0  0
    1.9924   -3.4558    0.0000 N   0  0  0  0  0  3  0  0  0  0  0  0
    0.6665   -3.4558    0.0000 C   0  0  0  0  0  4  0  0  0  0  0  0
    0.0000   -2.3039    0.0000 C   0  0  0  0  0  4  0  0  0  0  0  0
    0.6665   -1.1519    0.0000 N   0  0  0  0  0  3  0  0  0  0  0  0
    1.9924   -1.1519    0.0000 C   0  0  0  0  0  4  0  0  0  0  0  0
    2.6589    0.0000    0.0000 C   0  0  0  0  0  4  0  0  0  0  0  0
    3.9920    0.0000    0.0000 C   0  0  0  0  0  4  0  0  0  0  0  0
    0.0000   -4.6078    0.0000 C   0  0  0  0  0  4  0  0  0  0  0  0
    4.8759   -3.2965    0.0000 N   0  0  0  0  0  3  0  0  0  0  0  0
    6.0930   -2.7531    0.0000 C   0  0  0  0  0  4  0  0  0  0  0  0
    7.2450   -3.4196    0.0000 N   0  0  0  0  0  3  0  0  0  0  0  0
  1  2  1  0  0  0  0 
  2  3  1  0  0  0  0 
  2 15  1  0  0  0  0 
  3  4  2  0  0  0  0 
  3 12  1  0  0  0  0 
  4  5  1  0  0  0  0 
  4 14  1  0  0  0  0 
  5  6  2  0  0  0  0 
  5 10  1  0  0  0  0 
  6  7  1  0  0  0  0 
  7  8  2  0  0  0  0 
  7 13  1  0  0  0  0 
  8  9  1  0  0  0  0 
  9 10  2  0  0  0  0 
 10 11  1  0  0  0  0 
 11 12  2  0  0  0  0 
 14 15  2  0  0  0  0 
 15 16  1  0  0  0  0 
M  END
> <CDK Fingerprint>
SEACoZGiBQAIkiwGAyAIAAAIACaQACAQCAAQAAAIAAAAEGAAAECsgKAAAkEA4kwgAAgAKCAEAcAgAAECAABQgQAgAAQAZCAASQEFgECggAbgQIC0EQAZJDAwBGgCwQAhcIAQBCiIAUAkwAIChAOAACQAEIIIQAgABAACAAIBQg==

> <ActivityOutcome_CPDBAS_Rat>
active

> <TD50_Rat_mmol>
0.00778

$$$$

  CDK     0721101958

  9  9  0  0  0  0  0  0  0  0999 V2000
    0.0000   -2.3037    0.0000 N   0  0  0  0  0  3  0  0  0  0  0  0
    1.3315   -2.3037    0.0000 C   0  0  0  0  0  4  0  0  0  0  0  0
    1.9950   -1.1518    0.0000 N   0  0  0  0  0  3  0  0  0  0  0  0
    3.3265   -1.1518    0.0000 C   0  0  0  0  0  4  0  0  0  0  0  0
    3.9899   -2.3037    0.0000 N   0  0  0  0  0  3  0  0  0  0  0  0
    3.3265   -3.4555    0.0000 C   0  0  0  0  0  4  0  0  0  0  0  0
    1.9950   -3.4555    0.0000 N   0  0  0  0  0  3  0  0  0  0  0  0
    3.9899   -4.6073    0.0000 N   0  0  0  0  0  3  0  0  0  0  0  0
    3.9899    0.0000    0.0000 N   0  0  0  0  0  3  0  0  0  0  0  0
  1  2  1  0  0  0  0 
  2  3  2  0  0  0  0 
  2  7  1  0  0  0  0 
  3  4  1  0  0  0  0 
  4  5  2  0  0  0  0 
  4  9  1  0  0  0  0 
  5  6  1  0  0  0  0 
  6  7  2  0  0  0  0 
  6  8  1  0  0  0  0 
M  END
> <CDK Fingerprint>
AgCAAgQAQAAAAAAAAAAAAAAAAAAAAAAAAAAAAAAAAABgAAAAAAAAAAAAAAAAAAAAAQAAAAAAAAAAAAAAAAAAAAAQAAAAAEAAAAAAAAAAAAAAAAEAACAAAAAAAAAAAAAAAAAAABAAAAAAEAAAAAAAAAAAABAAAAAAAAACAAI=

> <ActivityOutcome_CPDBAS_Rat>
active

> <TD50_Rat_mmol>
5.83

$$$$

  CDK     0721101958

 23 25  0  0  0  0  0  0  0  0999 V2000
    2.2743   -2.3657    0.0000 C   0  0  0  0  0  4  0  0  0  0  0  0
    2.2743   -3.7143    0.0000 C   0  0  0  0  0  4  0  0  0  0  0  0
    3.4057   -1.7028    0.0000 C   0  0  0  0  0  4  0  0  0  0  0  0
    1.0857   -1.7028    0.0000 C   0  0  0  0  0  4  0  0  0  0  0  0
    3.4057   -4.4228    0.0000 S   0  0  0  0  0  6  0  0  0  0  0  0
    1.0857   -4.3771    0.0000 C   0  0  0  0  0  4  0  0  0  0  0  0
    4.5600   -2.3657    0.0000 C   0  0  0  0  0  4  0  0  0  0  0  0
    3.4057   -0.3429    0.0000 O   0  0  0  0  0  2  0  0  0  0  0  0
    0.0000   -2.3657    0.0000 C   0  0  0  0  0  4  0  0  0  0  0  0
    4.5600   -3.7600    0.0000 N   0  0  0  0  0  3  0  0  0  0  0  0
    4.0228   -5.5543    0.0000 O   0  0  0  0  0  2  0  0  0  0  0  0
    2.7200   -5.5543    0.0000 O   0  0  0  0  0  2  0  0  0  0  0  0
    0.0000   -3.7143    0.0000 C   0  0  0  0  0  4  0  0  0  0  0  0
    5.7371   -1.7028    0.0000 C   0  0  0  0  0  4  0  0  0  0  0  0
    5.7371   -4.3771    0.0000 C   0  0  0  0  0  4  0  0  0  0  0  0
    6.9142   -2.3657    0.0000 N   0  0  0  0  0  3  0  0  0  0  0  0
    5.7371   -0.3429    0.0000 O   0  0  0  0  0  2  0  0  0  0  0  0
    8.0571   -1.7028    0.0000 C   0  0  0  0  0  4  0  0  0  0  0  0
    8.0685   -0.3657    0.0000 N   0  0  0  0  0  3  0  0  0  0  0  0
    9.2799   -2.1028    0.0000 S   0  0  0  0  0  2  0  0  0  0  0  0
    9.3142    0.0000    0.0000 C   0  0  0  0  0  4  0  0  0  0  0  0
   10.1142   -1.0629    0.0000 C   0  0  0  0  0  4  0  0  0  0  0  0
   11.4285   -1.0286    0.0000 C   0  0  0  0  0  4  0  0  0  0  0  0
  1  2  2  0  0  0  0 
  1  3  1  0  0  0  0 
  1  4  1  0  0  0  0 
  2  5  1  0  0  0  0 
  2  6  1  0  0  0  0 
  3  7  2  0  0  0  0 
  3  8  1  0  0  0  0 
  4  9  2  0  0  0  0 
  5 10  1  0  0  0  0 
  5 11  2  0  0  0  0 
  5 12  2  0  0  0  0 
  6 13  2  0  0  0  0 
  7 14  1  0  0  0  0 
  7 10  1  0  0  0  0 
  9 13  1  0  0  0  0 
 10 15  1  0  0  0  0 
 14 16  1  0  0  0  0 
 14 17  2  0  0  0  0 
 16 18  1  0  0  0  0 
 18 19  2  0  0  0  0 
 18 20  1  0  0  0  0 
 19 21  1  0  0  0  0 
 20 22  1  0  0  0  0 
 21 22  2  0  0  0  0 
 22 23  1  0  0  0  0 
M  END
> <CDK Fingerprint>
IESDAjCQLgZCIIsnIQEgQBMBCE4QB/YBkAokUgQIQCAHAAtwwGSEkBoeADwSBIAUbBTMAyAUESDQmogAhAmBuKFVQqglwFuQQWgI6iAABIAUIBACsEkKgBKBEOQDEpjIoATAsMEllgmIqBCy3JRoioiAMFDFcKl06QGAGBCiBEA=

> <ActivityOutcome_CPDBAS_Rat>
inactive

$$$$

  CDK     0721101958

 19 19  0  0  0  0  0  0  0  0999 V2000
    0.0000   -2.3082    0.0000 O   0  0  0  0  0  2  0  0  0  0  0  0
    0.6595   -1.1488    0.0000 C   0  0  0  0  0  4  0  0  0  0  0  0
    0.0000    0.0000    0.0000 O   0  0  0  0  0  2  0  0  0  0  0  0
    1.9891   -1.1488    0.0000 C   0  0  0  0  0  4  0  0  0  0  0  0
    2.6592    0.0000    0.0000 N   0  0  0  0  0  3  0  0  0  0  0  0
    2.6592   -2.3082    0.0000 C   0  0  0  0  0  4  0  0  0  0  0  0
    3.9888   -2.3082    0.0000 C   0  0  0  0  0  4  0  0  0  0  0  0
    4.6589   -1.1488    0.0000 C   0  0  0  0  0  4  0  0  0  0  0  0
    5.9885   -1.1488    0.0000 C   0  0  0  0  0  4  0  0  0  0  0  0
    6.6480   -2.3082    0.0000 C   0  0  0  0  0  4  0  0  0  0  0  0
    5.9885   -3.4570    0.0000 C   0  0  0  0  0  4  0  0  0  0  0  0
    4.6589   -3.4570    0.0000 C   0  0  0  0  0  4  0  0  0  0  0  0
    7.9776   -2.3082    0.0000 N   0  0  0  0  0  3  0  0  0  0  0  0
    8.6477   -1.1488    0.0000 C   0  0  0  0  0  4  0  0  0  0  0  0
    9.9667   -1.1488    0.0000 C   0  0  0  0  0  4  0  0  0  0  0  0
   10.6368    0.0000    0.0000 Cl  0  0  0  0  0  1  0  0  0  0  0  0
    8.6477   -3.4570    0.0000 C   0  0  0  0  0  4  0  0  0  0  0  0
    9.9667   -3.4570    0.0000 C   0  0  0  0  0  4  0  0  0  0  0  0
   10.6368   -2.3082    0.0000 Cl  0  0  0  0  0  1  0  0  0  0  0  0
  1  2  1  0  0  0  0 
  2  3  2  0  0  0  0 
  2  4  1  0  0  0  0 
  4  5  1  1  0  0  0 
  4  6  1  0  0  0  0 
  6  7  1  0  0  0  0 
  7  8  1  0  0  0  0 
  7 12  2  0  0  0  0 
  8  9  2  0  0  0  0 
  9 10  1  0  0  0  0 
 10 11  2  0  0  0  0 
 10 13  1  0  0  0  0 
 11 12  1  0  0  0  0 
 13 14  1  0  0  0  0 
 13 17  1  0  0  0  0 
 14 15  1  0  0  0  0 
 15 16  1  0  0  0  0 
 17 18  1  0  0  0  0 
 18 19  1  0  0  0  0 
M  END
> <CDK Fingerprint>
EAAAAAGAIgACEgABQAAgCAIAAAAARSEAAAAABEBCCAAA4AAAAAAIBAAAAAAAmKAABEACAAIAQwAAIMAEAAFAFAwMAAIQABQAAgAggACQCAAEAQAAAAAAgBAAAACAACAAQABAIAAAACAAAkAQBAGQABwAhFIQBACAAAAAAhAA

> <ActivityOutcome_CPDBAS_Rat>
active

> <TD50_Rat_mmol>
0.000307

$$$$

  CDK     0721101958

 11 11  0  0  0  0  0  0  0  0999 V2000
    1.9925    0.0000    0.0000 O   0  0  0  0  0  2  0  0  0  0  0  0
    2.6567   -1.1488    0.0000 C   0  0  0  0  0  4  0  0  0  0  0  0
    3.9910   -1.1488    0.0000 C   0  0  0  0  0  4  0  0  0  0  0  0
    4.6552   -2.3037    0.0000 C   0  0  0  0  0  4  0  0  0  0  0  0
    3.9910   -3.4525    0.0000 C   0  0  0  0  0  4  0  0  0  0  0  0
    5.9835   -2.3037    0.0000 C   0  0  0  0  0  4  0  0  0  0  0  0
    1.9925   -2.3037    0.0000 C   0  0  0  0  0  4  0  0  0  0  0  0
    2.6567   -3.4525    0.0000 C   0  0  0  0  0  4  0  0  0  0  0  0
    0.6642   -2.3037    0.0000 C   0  0  0  0  0  4  0  0  0  0  0  0
    0.0000   -3.4525    0.0000 C   0  0  0  0  0  4  0  0  0  0  0  0
    0.0000   -1.1488    0.0000 C   0  0  0  0  0  4  0  0  0  0  0  0
  1  2  1  0  0  0  0 
  2  3  1  0  0  0  0 
  2  7  1  0  0  0  0 
  3  4  1  0  0  0  0 
  4  5  1  0  0  0  0 
  4  6  1  0  0  0  0 
  5  8  1  0  0  0  0 
  7  8  1  0  0  0  0 
  7  9  1  0  0  0  0 
  9 10  1  0  0  0  0 
  9 11  1  0  0  0  0 
M  END
> <CDK Fingerprint>
AgEAAAAAAAAAAAAAAEAAAAAAAAAAAAEAYAAAAAAAAAAAIAAAECAAIAAAAAAAAAAAAEBAAAAAAAAAAAAAAAAAAAAAAAEAAAAAAAAAAAAAABAAAAAAAAAAAAAAAEAAAAAAAAAQAAAAAAAAAAAQAAAAAAAAAAAA

> <ActivityOutcome_CPDBAS_Rat>
inactive

$$$$

  CDK     0721101958

 31 33  0  0  0  0  0  0  0  0999 V2000
    2.3058   -1.4523    0.0000 C   0  0  0  0  0  4  0  0  0  0  0  0
    1.1529   -2.1261    0.0000 C   0  0  0  0  0  4  0  0  0  0  0  0
    1.1529   -3.4437    0.0000 N   0  0  0  0  0  3  0  0  0  0  0  0
    0.0000   -4.1175    0.0000 C   0  0  0  0  0  4  0  0  0  0  0  0
    0.0000   -5.4500    0.0000 C   0  0  0  0  0  4  0  0  0  0  0  0
    2.3058   -4.1175    0.0000 C   0  0  0  0  0  4  0  0  0  0  0  0
    2.3058   -5.4500    0.0000 C   0  0  0  0  0  4  0  0  0  0  0  0
    3.4587   -6.1088    0.0000 O   0  0  0  0  0  2  0  0  0  0  0  0
    4.6116   -5.4500    0.0000 C   0  0  0  0  0  4  0  0  0  0  0  0
    4.6116   -4.1175    0.0000 C   0  0  0  0  0  4  0  0  0  0  0  0
    5.7645   -3.4437    0.0000 C   0  0  0  0  0  4  0  0  0  0  0  0
    6.9174   -4.1175    0.0000 C   0  0  0  0  0  4  0  0  0  0  0  0
    6.9174   -5.4500    0.0000 C   0  0  0  0  0  4  0  0  0  0  0  0
    5.7645   -6.1088    0.0000 C   0  0  0  0  0  4  0  0  0  0  0  0
    8.0553   -3.4437    0.0000 C   0  0  0  0  0  4  0  0  0  0  0  0
    8.7291   -4.5966    0.0000 O   0  0  0  0  0  2  0  0  0  0  0  0
    9.2082   -2.7849    0.0000 C   0  0  0  0  0  4  0  0  0  0  0  0
   10.3611   -3.4437    0.0000 C   0  0  0  0  0  4  0  0  0  0  0  0
   11.5140   -2.7849    0.0000 C   0  0  0  0  0  4  0  0  0  0  0  0
   12.6669   -3.4437    0.0000 C   0  0  0  0  0  4  0  0  0  0  0  0
   12.6669   -4.7763    0.0000 C   0  0  0  0  0  4  0  0  0  0  0  0
   13.8198   -5.4500    0.0000 O   0  0  0  0  0  2  0  0  0  0  0  0
   14.9727   -4.7763    0.0000 C   0  0  0  0  0  4  0  0  0  0  0  0
   11.5140   -5.4500    0.0000 C   0  0  0  0  0  4  0  0  0  0  0  0
   10.3611   -4.7763    0.0000 C   0  0  0  0  0  4  0  0  0  0  0  0
    7.3965   -2.2908    0.0000 C   0  0  0  0  0  4  0  0  0  0  0  0
    6.0639   -2.2908    0.0000 C   0  0  0  0  0  4  0  0  0  0  0  0
    5.4051   -1.1529    0.0000 C   0  0  0  0  0  4  0  0  0  0  0  0
    6.0639    0.0000    0.0000 C   0  0  0  0  0  4  0  0  0  0  0  0
    7.3965    0.0000    0.0000 C   0  0  0  0  0  4  0  0  0  0  0  0
    8.0553   -1.1529    0.0000 C   0  0  0  0  0  4  0  0  0  0  0  0
  1  2  1  0  0  0  0 
  2  3  1  0  0  0  0 
  3  4  1  0  0  0  0 
  3  6  1  0  0  0  0 
  4  5  1  0  0  0  0 
  6  7  1  0  0  0  0 
  7  8  1  0  0  0  0 
  8  9  1  0  0  0  0 
  9 10  2  0  0  0  0 
  9 14  1  0  0  0  0 
 10 11  1  0  0  0  0 
 11 12  2  0  0  0  0 
 12 13  1  0  0  0  0 
 12 15  1  0  0  0  0 
 13 14  2  0  0  0  0 
 15 16  1  0  0  0  0 
 15 17  1  0  0  0  0 
 15 26  1  0  0  0  0 
 17 18  1  0  0  0  0 
 18 19  2  0  0  0  0 
 18 25  1  0  0  0  0 
 19 20  1  0  0  0  0 
 20 21  2  0  0  0  0 
 21 22  1  0  0  0  0 
 21 24  1  0  0  0  0 
 22 23  1  0  0  0  0 
 24 25  2  0  0  0  0 
 26 27  2  0  0  0  0 
 26 31  1  0  0  0  0 
 27 28  1  0  0  0  0 
 28 29  2  0  0  0  0 
 29 30  1  0  0  0  0 
 30 31  2  0  0  0  0 
M  END
> <CDK Fingerprint>
IAAQIAACAAICQACSAJCABBEJAAAAAAAAgAQCAAAAAgQIAhJhAAAAAAICAAgCMAAYIAIAIACAACBAAQUIwAAAAAAOGAAAAAAABAAADAAAJIAIMAxAAEAAAACAEAAAAoAAIAgKAEAgJCAAAAAGQBBECACAHACAACFFAAEAAAAjQAA=

> <ActivityOutcome_CPDBAS_Rat>
inactive

$$$$

  CDK     0721101958

 10 11  0  0  0  0  0  0  0  0999 V2000
    0.0000   -1.3294    0.0000 S   0  0  0  0  0  2  0  0  0  0  0  0
    1.3294   -1.3294    0.0000 C   0  0  0  0  0  4  0  0  0  0  0  0
    2.1134   -2.4032    0.0000 N   0  0  0  0  0  3  0  0  0  0  0  0
    3.3747   -1.9941    0.0000 C   0  0  0  0  0  4  0  0  0  0  0  0
    3.3747   -0.6647    0.0000 C   0  0  0  0  0  4  0  0  0  0  0  0
    4.5280    0.0000    0.0000 C   0  0  0  0  0  4  0  0  0  0  0  0
    5.6812   -0.6647    0.0000 C   0  0  0  0  0  4  0  0  0  0  0  0
    5.6812   -1.9941    0.0000 C   0  0  0  0  0  4  0  0  0  0  0  0
    4.5280   -2.6588    0.0000 C   0  0  0  0  0  4  0  0  0  0  0  0
    2.1134   -0.2500    0.0000 S   0  0  0  0  0  2  0  0  0  0  0  0
  1  2  1  0  0  0  0 
  2  3  2  0  0  0  0 
  2 10  1  0  0  0  0 
  3  4  1  0  0  0  0 
  4  5  2  0  0  0  0 
  4  9  1  0  0  0  0 
  5  6  1  0  0  0  0 
  5 10  1  0  0  0  0 
  6  7  2  0  0  0  0 
  7  8  1  0  0  0  0 
  8  9  2  0  0  0  0 
M  END
> <CDK Fingerprint>
AIACAgCQAgDAAAAMAAAIAAEwAAAAAQAgAAAAAAQASAEBAAFgAAAAAAgAgAACIAAAIBAIAAAggABABoAAQAACAAFAAgAAAIAAAAEAAAAACEAICAAAgAAAAAAAICAQAAAAoEJAAAAgKAgQIBQCAACCAghBAAKgAAAAAIAIAAAAAAQ=

> <ActivityOutcome_CPDBAS_Rat>
active

> <TD50_Rat_mmol>
2.06

$$$$

  CDK     0721101958

 10 11  0  0  0  0  0  0  0  0999 V2000
    3.4557   -4.0992    0.0000 S   0  0  0  0  0  2  0  0  0  0  0  0
    2.3038   -3.4352    0.0000 C   0  0  0  0  0  4  0  0  0  0  0  0
    1.1519   -4.0992    0.0000 N   0  0  0  0  0  3  0  0  0  0  0  0
    0.0000   -3.4352    0.0000 C   0  0  0  0  0  4  0  0  0  0  0  0
    0.0000   -2.1029    0.0000 N   0  0  0  0  0  3  0  0  0  0  0  0
    1.1519   -1.4388    0.0000 C   0  0  0  0  0  4  0  0  0  0  0  0
    2.3038   -2.1029    0.0000 C   0  0  0  0  0  4  0  0  0  0  0  0
    3.2917   -1.2134    0.0000 N   0  0  0  0  0  3  0  0  0  0  0  0
    2.7506    0.0000    0.0000 C   0  0  0  0  0  4  0  0  0  0  0  0
    1.4265   -0.1394    0.0000 N   0  0  0  0  0  3  0  0  0  0  0  0
  1  2  2  0  0  0  0 
  2  3  1  0  0  0  0 
  2  7  1  0  0  0  0 
  3  4  1  0  0  0  0 
  4  5  2  0  0  0  0 
  5  6  1  0  0  0  0 
  6  7  2  0  0  0  0 
  6 10  1  0  0  0  0 
  7  8  1  0  0  0  0 
  8  9  2  0  0  0  0 
  9 10  1  0  0  0  0 
M  END
> <CDK Fingerprint>
YBACAIBiBSIAwCQAAEAEAEBgAIACAAAggAgAEEQgNBAQAeAAAAQQAkAIAAAIIAFgAAiGABCAAEAAAgCCAgAAERADgQQAAIAAUCxgUAAAgIAQBJCEUQAMIBRAQgAAoAAAAAAwCCDDlABAAEAAAEEAEkAAQACBAQAAAhFAAAICAg==

> <ActivityOutcome_CPDBAS_Rat>
inactive

$$$$

  CDK     0721101958

 14 16  0  0  0  0  0  0  0  0999 V2000
    4.4719   -3.1448    0.0000 O   0  0  0  0  0  2  0  0  0  0  0  0
    3.1448   -3.1448    0.0000 P   0  0  0  0  0  5  0  0  0  0  0  0
    3.1448   -4.4719    0.0000 N   0  0  0  0  0  3  0  0  0  0  0  0
    3.8115   -5.6229    0.0000 C   0  0  0  0  0  4  0  0  0  0  0  0
    2.4781   -5.6229    0.0000 C   0  0  0  0  0  4  0  0  0  0  0  0
    4.9625   -6.2896    0.0000 C   0  0  0  0  0  4  0  0  0  0  0  0
    1.8177   -3.1448    0.0000 N   0  0  0  0  0  3  0  0  0  0  0  0
    0.6667   -3.8115    0.0000 C   0  0  0  0  0  4  0  0  0  0  0  0
    0.6667   -2.4781    0.0000 C   0  0  0  0  0  4  0  0  0  0  0  0
    0.0000   -4.9625    0.0000 C   0  0  0  0  0  4  0  0  0  0  0  0
    3.1448   -1.8177    0.0000 N   0  0  0  0  0  3  0  0  0  0  0  0
    2.4781   -0.6667    0.0000 C   0  0  0  0  0  4  0  0  0  0  0  0
    3.8115   -0.6667    0.0000 C   0  0  0  0  0  4  0  0  0  0  0  0
    1.3271    0.0000    0.0000 C   0  0  0  0  0  4  0  0  0  0  0  0
  1  2  2  0  0  0  0 
  2  3  1  0  0  0  0 
  2  7  1  0  0  0  0 
  2 11  1  0  0  0  0 
  3  4  1  0  0  0  0 
  3  5  1  0  0  0  0 
  4  5  1  0  0  0  0 
  4  6  1  0  0  0  0 
  7  8  1  0  0  0  0 
  7  9  1  0  0  0  0 
  8  9  1  0  0  0  0 
  8 10  1  0  0  0  0 
 11 12  1  0  0  0  0 
 11 13  1  0  0  0  0 
 12 13  1  0  0  0  0 
 12 14  1  0  0  0  0 
M  END
> <CDK Fingerprint>
BAAAAAACAAAAAAEAAAAAAAAAAgAAAAAAAAAAAAAAAQFgAAAAAAAAAAAAAAAAIAAAAQAAAAAAAAAAwAAgAAAADBAAAAAAAAAAAACAAIAAAAAAAAAAAAAAAAAAAAAABAAAABAADAQAAAAAAAQAAAAAAAAAIAACAAAIAAADAAA=

> <ActivityOutcome_CPDBAS_Rat>
active

> <TD50_Rat_mmol>
0.0207

$$$$

  CDK     0721101958

  5  4  0  0  0  0  0  0  0  0999 V2000
    0.0000    0.0000    0.0000 N   0  0  0  0  0  3  0  0  0  0  0  0
    1.1416   -0.6587    0.0000 C   0  0  0  0  0  4  0  0  0  0  0  0
    2.3073   -1.3313    0.0000 C   0  0  0  0  0  4  0  0  0  0  0  0
    2.3073   -2.6625    0.0000 C   0  0  0  0  0  4  0  0  0  0  0  0
    3.4489   -0.6587    0.0000 C   0  0  0  0  0  4  0  0  0  0  0  0
  1  2  3  0  0  0  0 
  2  3  1  0  0  0  0 
  3  4  2  0  0  0  0 
  3  5  1  0  0  0  0 
M  END
> <CDK Fingerprint>
QAAAAAAAAAAAAAAAAAAAAAAAAAAAAAAAAAAAAAAAAAAAAGAAAAAAAAAAAAAAAAAgAAAAAAAQAAAAAABAAAAAAAAAAAAAAAAAAAAAAAAAAAAAAAAAAAAAAAAQAAAAAAAQAAAAAAAAAAAAAAAAAAgAAAAAAAAAACAAAAAAAAAAAA==

> <ActivityOutcome_CPDBAS_Rat>
inactive

$$$$

  CDK     0721101958

 18 19  0  0  0  0  0  0  0  0999 V2000
    2.1073    0.0000    0.0000 C   0  0  0  0  0  4  0  0  0  0  0  0
    3.2553   -0.6684    0.0000 N   0  0  0  0  0  3  0  0  0  0  0  0
    4.4111    0.0000    0.0000 C   0  0  0  0  0  4  0  0  0  0  0  0
    3.2553   -1.9972    0.0000 C   0  0  0  0  0  4  0  0  0  0  0  0
    4.4111   -2.6655    0.0000 C   0  0  0  0  0  4  0  0  0  0  0  0
    4.4111   -3.9944    0.0000 N   0  0  0  0  0  3  0  0  0  0  0  0
    3.2553   -4.6549    0.0000 C   0  0  0  0  0  4  0  0  0  0  0  0
    2.1073   -3.9944    0.0000 C   0  0  0  0  0  4  0  0  0  0  0  0
    0.8885   -4.5369    0.0000 C   0  0  0  0  0  4  0  0  0  0  0  0
    0.0000   -3.5462    0.0000 C   0  0  0  0  0  4  0  0  0  0  0  0
    0.6684   -2.3903    0.0000 C   0  0  0  0  0  4  0  0  0  0  0  0
    1.9657   -2.6734    0.0000 O   0  0  0  0  0  2  0  0  0  0  0  0
    5.5591   -4.6549    0.0000 C   0  0  0  0  0  4  0  0  0  0  0  0
    6.7150   -3.9944    0.0000 C   0  0  0  0  0  4  0  0  0  0  0  0
    7.8630   -4.6549    0.0000 C   0  0  0  0  0  4  0  0  0  0  0  0
    7.8630   -5.9837    0.0000 C   0  0  0  0  0  4  0  0  0  0  0  0
    6.7150   -6.6521    0.0000 C   0  0  0  0  0  4  0  0  0  0  0  0
    5.5591   -5.9837    0.0000 N   0  0  0  0  0  3  0  0  0  0  0  0
  1  2  1  0  0  0  0 
  2  3  1  0  0  0  0 
  2  4  1  0  0  0  0 
  4  5  1  0  0  0  0 
  5  6  1  0  0  0  0 
  6  7  1  0  0  0  0 
  6 13  1  0  0  0  0 
  7  8  1  0  0  0  0 
  8  9  2  0  0  0  0 
  8 12  1  0  0  0  0 
  9 10  1  0  0  0  0 
 10 11  2  0  0  0  0 
 11 12  1  0  0  0  0 
 13 14  2  0  0  0  0 
 13 18  1  0  0  0  0 
 14 15  1  0  0  0  0 
 15 16  2  0  0  0  0 
 16 17  1  0  0  0  0 
 17 18  2  0  0  0  0 
M  END
> <CDK Fingerprint>
KAAUQiiYCyQishAMAAGgAAAjKgABQkJIAQEAAQAEGCYAGBBgACAEEAAYABAAAAAMIAAEFACgQgBAAAAAgAQAJsGBgAIAQAAQEBBgAACEArAAgAIAAAEFABGBIAAAAIGHYCBAEBAkJQCAAKAAVAASAAAAAgCAoBBgAICBQCACgSA=

> <ActivityOutcome_CPDBAS_Rat>
inactive

$$$$

  CDK     0721101958

 18 19  0  0  0  0  0  0  0  0999 V2000
    2.1073    0.0000    0.0000 C   0  0  0  0  0  4  0  0  0  0  0  0
    3.2553   -0.6684    0.0000 N   0  0  0  0  0  3  0  0  0  0  0  0
    4.4111    0.0000    0.0000 C   0  0  0  0  0  4  0  0  0  0  0  0
    3.2553   -1.9972    0.0000 C   0  0  0  0  0  4  0  0  0  0  0  0
    4.4111   -2.6655    0.0000 C   0  0  0  0  0  4  0  0  0  0  0  0
    4.4111   -3.9944    0.0000 N   0  0  0  0  0  3  0  0  0  0  0  0
    3.2553   -4.6549    0.0000 C   0  0  0  0  0  4  0  0  0  0  0  0
    2.1073   -3.9944    0.0000 C   0  0  0  0  0  4  0  0  0  0  0  0
    0.8885   -4.5369    0.0000 C   0  0  0  0  0  4  0  0  0  0  0  0
    0.0000   -3.5462    0.0000 C   0  0  0  0  0  4  0  0  0  0  0  0
    0.6684   -2.3903    0.0000 C   0  0  0  0  0  4  0  0  0  0  0  0
    1.9657   -2.6734    0.0000 S   0  0  0  0  0  2  0  0  0  0  0  0
    5.5591   -4.6549    0.0000 C   0  0  0  0  0  4  0  0  0  0  0  0
    6.7150   -3.9944    0.0000 C   0  0  0  0  0  4  0  0  0  0  0  0
    7.8630   -4.6549    0.0000 C   0  0  0  0  0  4  0  0  0  0  0  0
    7.8630   -5.9837    0.0000 C   0  0  0  0  0  4  0  0  0  0  0  0
    6.7150   -6.6521    0.0000 C   0  0  0  0  0  4  0  0  0  0  0  0
    5.5591   -5.9837    0.0000 C   0  0  0  0  0  4  0  0  0  0  0  0
  1  2  1  0  0  0  0 
  2  3  1  0  0  0  0 
  2  4  1  0  0  0  0 
  4  5  1  0  0  0  0 
  5  6  1  0  0  0  0 
  6  7  1  0  0  0  0 
  6 13  1  0  0  0  0 
  7  8  1  0  0  0  0 
  8  9  2  0  0  0  0 
  8 12  1  0  0  0  0 
  9 10  1  0  0  0  0 
 10 11  2  0  0  0  0 
 11 12  1  0  0  0  0 
 13 14  2  0  0  0  0 
 13 18  1  0  0  0  0 
 14 15  1  0  0  0  0 
 15 16  2  0  0  0  0 
 16 17  1  0  0  0  0 
 17 18  2  0  0  0  0 
M  END
> <CDK Fingerprint>
IIAQQQBACADiEAAAAAEwAAAhAAAACUJIAQEAAQAEQCcAGAFgAACEECABABAgAACAIACEFAAgAgBACIAAgAQAIGDIgAAAAAAQAABAAAiAAvAABAAEIAAAAhGAAigAAIUAIAAAAAAgBAAAACACUAAAAAAAAgCAAAAhAMAAhEIGEAA=

> <ActivityOutcome_CPDBAS_Rat>
inactive

$$$$

  CDK     0721101958

  7  7  0  0  0  0  0  0  0  0999 V2000
    2.1116   -3.4168    0.0000 N   0  0  0  0  0  3  0  0  0  0  0  0
    1.3291   -2.3405    0.0000 C   0  0  0  0  0  4  0  0  0  0  0  0
    2.1116   -1.2642    0.0000 N   0  0  0  0  0  3  0  0  0  0  0  0
    3.3758   -1.6742    0.0000 C   0  0  0  0  0  4  0  0  0  0  0  0
    3.3758   -3.0067    0.0000 C   0  0  0  0  0  4  0  0  0  0  0  0
    1.7015    0.0000    0.0000 C   0  0  0  0  0  4  0  0  0  0  0  0
    0.0000   -2.3405    0.0000 S   0  0  0  0  0  2  0  0  0  0  0  0
  1  2  1  0  0  0  0 
  1  5  1  0  0  0  0 
  2  3  1  0  0  0  0 
  2  7  2  0  0  0  0 
  3  4  1  0  0  0  0 
  3  6  1  0  0  0  0 
  4  5  2  0  0  0  0 
M  END
> <CDK Fingerprint>
AhAAQAAAAAAAAAAAAABAAAAgAAIAAAAAAABBYAAAAAAAAAAAAIgAAAAAAAAAABAAAAAgAIAAAAAAAAAAAAAAAAAAAAAAAAAAAAAAAAAAAAAAEAAAAAAAAAAAAAAAAAAAAAAAAAAAAAAAAEAAAgQAAAAAAQAAAgAA

> <ActivityOutcome_CPDBAS_Rat>
active

> <TD50_Rat_mmol>
0.00999

$$$$

  CDK     0721101958

  9  8  0  0  0  0  0  0  0  0999 V2000
    2.2992   -3.3210    0.0000 N   0  0  0  0  0  3  0  0  0  0  0  0
    2.2992   -1.9954    0.0000 C   0  0  0  0  0  4  0  0  0  0  0  0
    1.1530   -1.3257    0.0000 C   0  0  0  0  0  4  0  0  0  0  0  0
    1.1530    0.0000    0.0000 O   0  0  0  0  0  2  0  0  0  0  0  0
    0.0000   -1.9954    0.0000 O   0  0  0  0  0  2  0  0  0  0  0  0
    3.4522   -1.3257    0.0000 C   0  0  0  0  0  4  0  0  0  0  0  0
    4.6053   -1.9954    0.0000 C   0  0  0  0  0  4  0  0  0  0  0  0
    5.7514   -1.3257    0.0000 S   0  0  0  0  0  2  0  0  0  0  0  0
    6.9045   -1.9954    0.0000 C   0  0  0  0  0  4  0  0  0  0  0  0
  1  2  1  0  0  0  0 
  2  3  1  0  0  0  0 
  2  6  1  0  0  0  0 
  3  4  2  0  0  0  0 
  3  5  1  0  0  0  0 
  6  7  1  0  0  0  0 
  7  8  1  0  0  0  0 
  8  9  1  0  0  0  0 
M  END
> <CDK Fingerprint>
AIACAAACAAEAAAAAAAAAAAQAAAAAAAAAAAAAAAFgAAAABAAAAAAIAAAYIAAAAAAAAAAAAAAgQAAAAAAAAAAAAAAAAAAAQAAAAAAAAAAAgAAAAAACEAAAAABAAABAAAABQAAAAAAAgBAAAYAgAAAAUBAAAAAAAAACABA=

> <ActivityOutcome_CPDBAS_Rat>
inactive

$$$$

  CDK     0721101958

 33 35  0  0  0  0  0  0  0  0999 V2000
   14.9725   -5.3302    0.0000 N   0  0  0  0  0  3  0  0  0  0  0  0
   13.8197   -5.9890    0.0000 C   0  0  0  0  0  4  0  0  0  0  0  0
   12.6668   -5.3302    0.0000 C   0  0  0  0  0  4  0  0  0  0  0  0
   11.5139   -5.9890    0.0000 C   0  0  0  0  0  4  0  0  0  0  0  0
   11.5139   -7.3216    0.0000 N   0  0  0  0  0  3  0  0  0  0  0  0
   12.6668   -7.9804    0.0000 C   0  0  0  0  0  4  0  0  0  0  0  0
   13.8197   -7.3216    0.0000 N   0  0  0  0  0  3  0  0  0  0  0  0
   12.6668   -9.3129    0.0000 N   0  0  0  0  0  3  0  0  0  0  0  0
   10.3610   -5.3302    0.0000 N   0  0  0  0  0  3  0  0  0  0  0  0
   10.3610   -3.9977    0.0000 C   0  0  0  0  0  4  0  0  0  0  0  0
   11.5139   -3.3239    0.0000 C   0  0  0  0  0  4  0  0  0  0  0  0
   12.6668   -3.9977    0.0000 N   0  0  0  0  0  3  0  0  0  0  0  0
   11.5139   -1.9913    0.0000 C   0  0  0  0  0  4  0  0  0  0  0  0
   10.3610   -1.3326    0.0000 N   0  0  0  0  0  3  0  0  0  0  0  0
    9.2081   -1.9913    0.0000 C   0  0  0  0  0  4  0  0  0  0  0  0
    9.2081   -3.3239    0.0000 C   0  0  0  0  0  4  0  0  0  0  0  0
    8.0552   -3.9977    0.0000 C   0  0  0  0  0  4  0  0  0  0  0  0
    6.9173   -3.3239    0.0000 C   0  0  0  0  0  4  0  0  0  0  0  0
    6.9173   -1.9913    0.0000 C   0  0  0  0  0  4  0  0  0  0  0  0
    8.0552   -1.3326    0.0000 C   0  0  0  0  0  4  0  0  0  0  0  0
    5.7644   -3.9977    0.0000 C   0  0  0  0  0  4  0  0  0  0  0  0
    4.6115   -3.3239    0.0000 O   0  0  0  0  0  2  0  0  0  0  0  0
    5.7644   -5.3302    0.0000 N   0  0  0  0  0  3  0  0  0  0  0  0
    4.6115   -5.9890    0.0000 C   0  0  0  0  0  4  0  0  0  0  0  0
    3.4587   -5.3302    0.0000 C   0  0  0  0  0  4  0  0  0  0  0  0
    2.3058   -5.9890    0.0000 C   0  0  0  0  0  4  0  0  0  0  0  0
    1.1529   -5.3302    0.0000 C   0  0  0  0  0  4  0  0  0  0  0  0
    1.1529   -3.9977    0.0000 O   0  0  0  0  0  2  0  0  0  0  0  0
    0.0000   -5.9890    0.0000 O   0  0  0  0  0  2  0  0  0  0  0  0
    4.6115   -7.3216    0.0000 C   0  0  0  0  0  4  0  0  0  0  0  0
    3.4587   -7.9804    0.0000 O   0  0  0  0  0  2  0  0  0  0  0  0
    5.7644   -7.9804    0.0000 O   0  0  0  0  0  2  0  0  0  0  0  0
   10.3610    0.0000    0.0000 C   0  0  0  0  0  4  0  0  0  0  0  0
  1  2  1  0  0  0  0 
  2  3  2  0  0  0  0 
  2  7  1  0  0  0  0 
  3  4  1  0  0  0  0 
  3 12  1  0  0  0  0 
  4  5  2  0  0  0  0 
  4  9  1  0  0  0  0 
  5  6  1  0  0  0  0 
  6  7  2  0  0  0  0 
  6  8  1  0  0  0  0 
  9 10  2  0  0  0  0 
 10 11  1  0  0  0  0 
 11 12  2  0  0  0  0 
 11 13  1  0  0  0  0 
 13 14  1  0  0  0  0 
 14 15  1  0  0  0  0 
 14 33  1  0  0  0  0 
 15 16  2  0  0  0  0 
 15 20  1  0  0  0  0 
 16 17  1  0  0  0  0 
 17 18  2  0  0  0  0 
 18 19  1  0  0  0  0 
 18 21  1  0  0  0  0 
 19 20  2  0  0  0  0 
 21 22  2  0  0  0  0 
 21 23  1  0  0  0  0 
 24 23  1  6  0  0  0 
 24 25  1  0  0  0  0 
 24 30  1  0  0  0  0 
 25 26  1  0  0  0  0 
 26 27  1  0  0  0  0 
 27 28  2  0  0  0  0 
 27 29  1  0  0  0  0 
 30 31  2  0  0  0  0 
 30 32  1  0  0  0  0 
M  END
> <CDK Fingerprint>
CBRiAJQzRWNQgCoKAWoAAClKQAYQImkBAIEBQQRMJgUBGHkBIAacgACGAgBAI5mhBL+ECigGBEIAVCHAJAQgwRQhABQFQGAwQWBAApACkAaAQMEwAcAJJbYRZiAAwaChYsA2QKSCEUAigAJXMAUhwCYCAIBSGUIAhAACAkIRAw==

> <ActivityOutcome_CPDBAS_Rat>
inactive

$$$$

  CDK     0721101958

 16 18  0  0  0  0  0  0  0  0999 V2000
    1.1500    0.0000    0.0000 N   0  0  0  0  0  3  0  0  0  0  0  0
    2.2999   -0.6644    0.0000 C   0  0  0  0  0  4  0  0  0  0  0  0
    2.2999   -1.9933    0.0000 C   0  0  0  0  0  4  0  0  0  0  0  0
    3.4584   -2.6577    0.0000 C   0  0  0  0  0  4  0  0  0  0  0  0
    4.6084   -1.9933    0.0000 C   0  0  0  0  0  4  0  0  0  0  0  0
    5.8690   -2.4021    0.0000 C   0  0  0  0  0  4  0  0  0  0  0  0
    6.6527   -1.3288    0.0000 C   0  0  0  0  0  4  0  0  0  0  0  0
    7.9730   -1.4651    0.0000 C   0  0  0  0  0  4  0  0  0  0  0  0
    8.5182   -2.6832    0.0000 C   0  0  0  0  0  4  0  0  0  0  0  0
    7.7345   -3.7565    0.0000 C   0  0  0  0  0  4  0  0  0  0  0  0
    6.4142   -3.6202    0.0000 C   0  0  0  0  0  4  0  0  0  0  0  0
    5.8690   -0.2470    0.0000 O   0  0  0  0  0  2  0  0  0  0  0  0
    4.6084   -0.6644    0.0000 C   0  0  0  0  0  4  0  0  0  0  0  0
    3.4584    0.0000    0.0000 C   0  0  0  0  0  4  0  0  0  0  0  0
    1.1500   -2.6577    0.0000 O   0  0  0  0  0  2  0  0  0  0  0  0
    0.0000   -1.9933    0.0000 C   0  0  0  0  0  4  0  0  0  0  0  0
  1  2  1  0  0  0  0 
  2  3  2  0  0  0  0 
  2 14  1  0  0  0  0 
  3  4  1  0  0  0  0 
  3 15  1  0  0  0  0 
  4  5  2  0  0  0  0 
  5  6  1  0  0  0  0 
  5 13  1  0  0  0  0 
  6  7  2  0  0  0  0 
  6 11  1  0  0  0  0 
  7  8  1  0  0  0  0 
  7 12  1  0  0  0  0 
  8  9  2  0  0  0  0 
  9 10  1  0  0  0  0 
 10 11  2  0  0  0  0 
 12 13  1  0  0  0  0 
 13 14  2  0  0  0  0 
 15 16  1  0  0  0  0 
M  END
> <CDK Fingerprint>
QQQAIAAgIAAACiAQgAEIAqAAAAAAQIQAAACQBAACAAACYQACAAAAAAAAAQIBAAAASCAAAAwAQAAAgACAAgEAChAAAAKAAICAAAQAEACAAAACAAAABAkAQAAAAAAAACAAQACQICggAAICAggAAgAABAAAggAAAEAAAABAIhSB

> <ActivityOutcome_CPDBAS_Rat>
active

> <TD50_Rat_mmol>
0.136

$$$$

  CDK     0721101958

 10 10  0  0  0  0  0  0  0  0999 V2000
    3.9887    0.0000    0.0000 O   0  0  0  0  0  2  0  0  0  0  0  0
    3.3239   -1.1541    0.0000 C   0  0  0  0  0  4  0  0  0  0  0  0
    3.9887   -2.3081    0.0000 C   0  0  0  0  0  4  0  0  0  0  0  0
    3.3239   -3.4568    0.0000 C   0  0  0  0  0  4  0  0  0  0  0  0
    1.9943   -3.4568    0.0000 C   0  0  0  0  0  4  0  0  0  0  0  0
    1.3296   -2.3081    0.0000 C   0  0  0  0  0  4  0  0  0  0  0  0
    1.9943   -1.1541    0.0000 C   0  0  0  0  0  4  0  0  0  0  0  0
    1.3296    0.0000    0.0000 O   0  0  0  0  0  2  0  0  0  0  0  0
    0.0000    0.0000    0.0000 C   0  0  0  0  0  4  0  0  0  0  0  0
    5.3182   -2.3081    0.0000 O   0  0  0  0  0  2  0  0  0  0  0  0
  1  2  1  0  0  0  0 
  2  3  2  0  0  0  0 
  2  7  1  0  0  0  0 
  3  4  1  0  0  0  0 
  3 10  1  0  0  0  0 
  4  5  2  0  0  0  0 
  5  6  1  0  0  0  0 
  6  7  2  0  0  0  0 
  7  8  1  0  0  0  0 
  8  9  1  0  0  0  0 
M  END
> <CDK Fingerprint>
AgAAAAAAAAAACAAAAIAAAAAAAAAAAAACYQAAAgAIAABAAAAAAAAAACAAAAAAQAAAAAAAAAAABhAAAIAAAgAAAAQAAACAAAAAAAAAAAAAAAAAAAAAACAAAAAAICAgABAAAgAAAAAAAAAAgAAAAAAAAAAAIAAA

> <ActivityOutcome_CPDBAS_Rat>
active

> <TD50_Rat_mmol>
0.348

$$$$

  CDK     0721101958

 21 22  0  0  0  0  0  0  0  0999 V2000
    4.4361   -1.3366    0.0000 Cl  0  0  0  0  0  1  0  0  0  0  0  0
    5.7611   -1.3366    0.0000 C   0  0  0  0  0  4  0  0  0  0  0  0
    5.7611   -2.6616    0.0000 C   0  0  0  0  0  4  0  0  0  0  0  0
    6.9133   -3.3299    0.0000 C   0  0  0  0  0  4  0  0  0  0  0  0
    8.0656   -2.6616    0.0000 C   0  0  0  0  0  4  0  0  0  0  0  0
    9.2178   -3.3299    0.0000 C   0  0  0  0  0  4  0  0  0  0  0  0
    9.2178   -4.6550    0.0000 C   0  0  0  0  0  4  0  0  0  0  0  0
    8.0656   -5.3233    0.0000 C   0  0  0  0  0  4  0  0  0  0  0  0
    6.9133   -4.6550    0.0000 C   0  0  0  0  0  4  0  0  0  0  0  0
   10.3700   -5.3233    0.0000 O   0  0  0  0  0  2  0  0  0  0  0  0
   11.5222   -4.6550    0.0000 C   0  0  0  0  0  4  0  0  0  0  0  0
    4.6089   -3.3299    0.0000 C   0  0  0  0  0  4  0  0  0  0  0  0
    4.6089   -4.6550    0.0000 C   0  0  0  0  0  4  0  0  0  0  0  0
    3.4567   -5.3233    0.0000 C   0  0  0  0  0  4  0  0  0  0  0  0
    2.3044   -4.6550    0.0000 C   0  0  0  0  0  4  0  0  0  0  0  0
    2.3044   -3.3299    0.0000 C   0  0  0  0  0  4  0  0  0  0  0  0
    3.4567   -2.6616    0.0000 C   0  0  0  0  0  4  0  0  0  0  0  0
    1.1522   -5.3233    0.0000 O   0  0  0  0  0  2  0  0  0  0  0  0
    0.0000   -4.6550    0.0000 C   0  0  0  0  0  4  0  0  0  0  0  0
    5.7611    0.0000    0.0000 Cl  0  0  0  0  0  1  0  0  0  0  0  0
    7.0862   -1.3366    0.0000 Cl  0  0  0  0  0  1  0  0  0  0  0  0
  1  2  1  0  0  0  0 
  2  3  1  0  0  0  0 
  2 20  1  0  0  0  0 
  2 21  1  0  0  0  0 
  3  4  1  0  0  0  0 
  3 12  1  0  0  0  0 
  4  5  2  0  0  0  0 
  4  9  1  0  0  0  0 
  5  6  1  0  0  0  0 
  6  7  2  0  0  0  0 
  7  8  1  0  0  0  0 
  7 10  1  0  0  0  0 
  8  9  2  0  0  0  0 
 10 11  1  0  0  0  0 
 12 13  2  0  0  0  0 
 12 17  1  0  0  0  0 
 13 14  1  0  0  0  0 
 14 15  2  0  0  0  0 
 15 16  1  0  0  0  0 
 15 18  1  0  0  0  0 
 16 17  2  0  0  0  0 
 18 19  1  0  0  0  0 
M  END
> <CDK Fingerprint>
QAACAIAAQBABAAAAAAAAgAACAAAAAAAIAALhAAAAAAIAAAECAAAAIAAAIAYAAABAAQAAQAAAAQAGGAAgAIAAACAABAAAIIAIEAAAAAAAAICABAAAAIAAIACCAEAgICAAAAAGQAAEAAAAFACAACBBAAAAAAAgAAA=

> <ActivityOutcome_CPDBAS_Rat>
inactive

$$$$

  CDK     0721101958

  9  9  0  0  0  0  0  0  0  0999 V2000
    0.0000    0.0000    0.0000 C   0  0  0  0  0  4  0  0  0  0  0  0
    0.6638   -1.1542    0.0000 O   0  0  0  0  0  2  0  0  0  0  0  0
    1.9915   -1.1542    0.0000 C   0  0  0  0  0  4  0  0  0  0  0  0
    2.6554    0.0000    0.0000 C   0  0  0  0  0  4  0  0  0  0  0  0
    3.9890    0.0000    0.0000 C   0  0  0  0  0  4  0  0  0  0  0  0
    4.6529   -1.1542    0.0000 C   0  0  0  0  0  4  0  0  0  0  0  0
    3.9890   -2.3025    0.0000 C   0  0  0  0  0  4  0  0  0  0  0  0
    2.6554   -2.3025    0.0000 C   0  0  0  0  0  4  0  0  0  0  0  0
    5.9806   -1.1542    0.0000 O   0  0  0  0  0  2  0  0  0  0  0  0
  1  2  1  0  0  0  0 
  2  3  1  0  0  0  0 
  3  4  2  0  0  0  0 
  3  8  1  0  0  0  0 
  4  5  1  0  0  0  0 
  5  6  2  0  0  0  0 
  6  7  1  0  0  0  0 
  6  9  1  0  0  0  0 
  7  8  2  0  0  0  0 
M  END
> <CDK Fingerprint>
AgAAAAAAAAAAAAAAAIAAAAAAAAAAAAACYQAAAAAAAAAAAAAABAAAACAAAAAAQAAAAAAAAAAAAhAAAAAAAAAAAAQAAACAAAEAAAAAAAAAAAAAAAAAACAAAAAAICAgAAAAAgAAAAAAAAAAgAAAAAAAAAAAIAAA

> <ActivityOutcome_CPDBAS_Rat>
active

> <TD50_Rat_mmol>
5.3

$$$$

  CDK     0721101958

 16 18  0  0  0  0  0  0  0  0999 V2000
    2.0454    0.0000    0.0000 C   0  0  0  0  0  4  0  0  0  0  0  0
    3.2008   -0.6636    0.0000 O   0  0  0  0  0  2  0  0  0  0  0  0
    3.2008   -1.9907    0.0000 C   0  0  0  0  0  4  0  0  0  0  0  0
    4.3484   -2.6543    0.0000 C   0  0  0  0  0  4  0  0  0  0  0  0
    4.3484   -3.9893    0.0000 C   0  0  0  0  0  4  0  0  0  0  0  0
    3.2008   -4.6528    0.0000 C   0  0  0  0  0  4  0  0  0  0  0  0
    2.0454   -3.9893    0.0000 C   0  0  0  0  0  4  0  0  0  0  0  0
    2.0454   -2.6543    0.0000 C   0  0  0  0  0  4  0  0  0  0  0  0
    0.7807   -2.2483    0.0000 O   0  0  0  0  0  2  0  0  0  0  0  0
    0.0000   -3.3257    0.0000 C   0  0  0  0  0  4  0  0  0  0  0  0
    0.7807   -4.3952    0.0000 C   0  0  0  0  0  4  0  0  0  0  0  0
    5.5038   -4.6528    0.0000 C   0  0  0  0  0  4  0  0  0  0  0  0
    6.6514   -3.9893    0.0000 C   0  0  0  0  0  4  0  0  0  0  0  0
    6.6514   -2.6543    0.0000 C   0  0  0  0  0  4  0  0  0  0  0  0
    7.8068   -1.9907    0.0000 O   0  0  0  0  0  2  0  0  0  0  0  0
    5.5038   -1.9907    0.0000 O   0  0  0  0  0  2  0  0  0  0  0  0
  1  2  1  0  0  0  0 
  2  3  1  0  0  0  0 
  3  4  2  0  0  0  0 
  3  8  1  0  0  0  0 
  4  5  1  0  0  0  0 
  4 16  1  0  0  0  0 
  5  6  2  0  0  0  0 
  5 12  1  0  0  0  0 
  6  7  1  0  0  0  0 
  7  8  2  0  0  0  0 
  7 11  1  0  0  0  0 
  8  9  1  0  0  0  0 
  9 10  1  0  0  0  0 
 10 11  2  0  0  0  0 
 12 13  2  0  0  0  0 
 13 14  1  0  0  0  0 
 14 15  2  0  0  0  0 
 14 16  1  0  0  0  0 
M  END
> <CDK Fingerprint>
AkABZRIAILYACBkDIFCAJB4CoIAMIKBAkAAAAIALAARiAA5hEMYAgIAACCgBCIHQ4ApIMCCwHgBAAQAZAIAMAgBGmCAQRogTAIMCBAAQAIAgAgJEAAhMCACAMPgKgsgAIQBEANEgKCBAErICSxAOAQEWEQCA8AgAEAAAAEAhNAE=

> <ActivityOutcome_CPDBAS_Rat>
active

> <TD50_Rat_mmol>
0.15

$$$$

  CDK     0721101958

  6  5  0  0  0  0  0  0  0  0999 V2000
    1.3295    0.0000    0.0000 C   0  0  0  0  0  4  0  0  0  0  0  0
    0.0000    0.0000    0.0000 C   0  0  0  0  0  4  0  0  0  0  0  0
    3.3258   -1.1498    0.0000 N   0  0  0  0  0  4  0  0  0  0  0  0
    1.9963   -1.1498    0.0000 N   0  0  0  0  0  3  0  0  0  0  0  0
    3.9925    0.0000    0.0000 O   0  0  0  0  0  1  0  0  0  0  0  0
    3.9925   -2.3037    0.0000 C   0  0  0  0  0  4  0  0  0  0  0  0
  1  2  1  0  0  0  0 
  1  4  1  0  0  0  0 
  3  4  2  0  0  0  0 
  3  5  1  0  0  0  0 
  3  6  1  0  0  0  0 
M  CHG  1   3   1
M  CHG  1   5  -1
M  END
> <CDK Fingerprint>
QAACAAAIAAAAAAAAAAAAAAAAAAAAAAAAAAAAAABgAAAAAAAAAAAAAAAAIAAAgAIAAAAgAAQAAAAgEAAAAAAAAAAAAAAAAAAAAAAAAAQAAAAAAAAAAAAAAAAAAAAAAAAAAAAAAAAAAAAAAAAAAAAAAAAAAAAQAAACAAA=

> <ActivityOutcome_CPDBAS_Rat>
active

> <TD50_Rat_mmol>
0.131

$$$$

  CDK     0721101958

  2  1  0  0  0  0  0  0  0  0999 V2000
    0.0000    0.0000    0.0000 C   0  0  0  0  0  4  0  0  0  0  0  0
    1.3300    0.0000    0.0000 Br  0  0  0  0  0  1  0  0  0  0  0  0
  1  2  1  0  0  0  0 
M  END
> <CDK Fingerprint>
AMAAAAAAAAAAAAAAAAAAAAAAAAAAAAAAAAAAAAAAAAAAAAAAAAAAAAAAAQAAAAAAAAAAAAAAAAAAAAAAAAAAAAAAAAAAAAAAAAAAAAAAAAAAAAAAAAAAAAAAAAAAAA==

> <ActivityOutcome_CPDBAS_Rat>
inactive

$$$$

  CDK     0721101958

  6  5  0  0  0  0  0  0  0  0999 V2000
    1.8169   -2.3040    0.0000 C   0  0  0  0  0  4  0  0  0  0  0  0
    1.1503   -1.1537    0.0000 C   0  0  0  0  0  4  0  0  0  0  0  0
    2.3040   -0.4870    0.0000 O   0  0  0  0  0  2  0  0  0  0  0  0
    3.4542   -1.1537    0.0000 C   0  0  0  0  0  4  0  0  0  0  0  0
    0.0000   -1.8169    0.0000 C   0  0  0  0  0  4  0  0  0  0  0  0
    0.4870    0.0000    0.0000 C   0  0  0  0  0  4  0  0  0  0  0  0
  1  2  1  0  0  0  0 
  2  3  1  0  0  0  0 
  2  5  1  0  0  0  0 
  2  6  1  0  0  0  0 
  3  4  1  0  0  0  0 
M  END
> <CDK Fingerprint>
AgAAAAAAAAAAAAAAAIAAAAAAAAAAAAAAYAAAAAAAAAAAAAAAACACAAAAAAAAAAAAAEAAAAAAAAAAAAAAAAAAAAAAAAAAAAAAAAAAAAAAABAAAAAAAAAAAAAAAAAAAAAAAAAAAAAAAAAAAAAAAAAAAAAAAAAA

> <ActivityOutcome_CPDBAS_Rat>
active

> <TD50_Rat_mmol>
7.96

$$$$

  CDK     0721101958

  5  4  0  0  0  0  0  0  0  0999 V2000
    0.0000   -1.9945    0.0000 N   0  0  0  0  0  3  0  0  0  0  0  0
    1.1511   -1.3308    0.0000 C   0  0  0  0  0  4  0  0  0  0  0  0
    1.1511    0.0000    0.0000 O   0  0  0  0  0  2  0  0  0  0  0  0
    2.3056   -1.9945    0.0000 O   0  0  0  0  0  2  0  0  0  0  0  0
    3.4567   -1.3308    0.0000 C   0  0  0  0  0  4  0  0  0  0  0  0
  1  2  1  0  0  0  0 
  2  3  2  0  0  0  0 
  2  4  1  0  0  0  0 
  4  5  1  0  0  0  0 
M  END
> <CDK Fingerprint>
AgAAAAAAAAAAAAAAAIAAAACAAAAAAAAAYAAAAAAAAAAAAAAAAAAAAAAAAAAAAAAAAAAAAAAAAAAAAAAAAAAAAAAAAAAAAAAAAAAAAAAAAAEAAAAAAAAAQAAAAAAAAABAAAAAAAAAAAAAAEAAAAAAAAAAAgAA

> <ActivityOutcome_CPDBAS_Rat>
active

> <TD50_Rat_mmol>
0.754

$$$$

  CDK     0721101958

  6  5  0  0  0  0  0  0  0  0999 V2000
    2.6616    0.0000    0.0000 O   0  0  0  0  0  2  0  0  0  0  0  0
    1.9952   -1.1492    0.0000 C   0  0  0  0  0  4  0  0  0  0  0  0
    2.6616   -2.3025    0.0000 N   0  0  0  0  0  3  0  0  0  0  0  0
    3.9905   -2.3025    0.0000 N   0  0  0  0  0  3  0  0  0  0  0  0
    0.6664   -1.1492    0.0000 O   0  0  0  0  0  2  0  0  0  0  0  0
    0.0000   -2.3025    0.0000 C   0  0  0  0  0  4  0  0  0  0  0  0
  1  2  2  0  0  0  0 
  2  3  1  0  0  0  0 
  2  5  1  0  0  0  0 
  3  4  1  0  0  0  0 
  5  6  1  0  0  0  0 
M  END
> <CDK Fingerprint>
AgAAAAAAAAAAAAAAAIAAAACAAAAAAAAAYAAAAAAAAAAAAAAAAAAAAAAAAAAAAAAAAAAAAAIAAAAAAAAAAAAAAAAAAAAIAAAAAAAEAAAAAAEAAAAAAAAAQCAAAAAAAABAAAAAAAAAAAAAAEAAAAAAAAAAAwAA

> <ActivityOutcome_CPDBAS_Rat>
inactive

$$$$

  CDK     0721101958

 13 13  0  0  0  0  0  0  0  0999 V2000
    2.3223   -2.6378    0.0000 C   0  0  0  0  0  4  0  0  0  0  0  0
    6.9344   -2.6378    0.0000 C   0  0  0  0  0  4  0  0  0  0  0  0
    3.4470   -1.9905    0.0000 C   0  0  0  0  0  4  0  0  0  0  0  0
    4.6202   -2.6621    0.0000 O   0  0  0  0  0  2  0  0  0  0  0  0
    1.1652   -1.9905    0.0000 C   0  0  0  0  0  4  0  0  0  0  0  0
    8.0915   -1.9905    0.0000 O   0  0  0  0  0  2  0  0  0  0  0  0
    3.4470   -0.6554    0.0000 C   0  0  0  0  0  4  0  0  0  0  0  0
    5.7692   -1.9905    0.0000 C   0  0  0  0  0  4  0  0  0  0  0  0
    1.1652   -0.6554    0.0000 C   0  0  0  0  0  4  0  0  0  0  0  0
    6.9344   -3.9810    0.0000 O   0  0  0  0  0  2  0  0  0  0  0  0
    2.3223    0.0000    0.0000 C   0  0  0  0  0  4  0  0  0  0  0  0
    0.0000    0.0000    0.0000 Cl  0  0  0  0  0  1  0  0  0  0  0  0
    2.3223   -3.9810    0.0000 C   0  0  0  0  0  4  0  0  0  0  0  0
  1  3  2  0  0  0  0 
  1  5  1  0  0  0  0 
  1 13  1  0  0  0  0 
  2  8  1  0  0  0  0 
  2  6  2  0  0  0  0 
  2 10  1  0  0  0  0 
  3  4  1  0  0  0  0 
  3  7  1  0  0  0  0 
  4  8  1  0  0  0  0 
  5  9  2  0  0  0  0 
  7 11  2  0  0  0  0 
  9 11  1  0  0  0  0 
  9 12  1  0  0  0  0 
M  END
> <CDK Fingerprint>
BQAAAAIAAAAAAABCABAABAAAAAAAAAAAgAAAAAAAAIBIAALhAAAAAAAAAAgAAAAIIAIgKACAAABgAAAIAAAAAwAGEAAAAAABAAAABAAAAIAAAgBAAAAAAIGBkAAIAMAAIABAAMAgJCEAAAASQAAAAIAAAACAUAAAAAAABAAgBAA=

> <ActivityOutcome_CPDBAS_Rat>
inactive

$$$$

  CDK     0721101958

 21 22  0  0  0  0  0  0  0  0999 V2000
    1.1532   -3.3246    0.0000 O   0  0  0  0  0  2  0  0  0  0  0  0
    1.1532   -1.9997    0.0000 C   0  0  0  0  0  4  0  0  0  0  0  0
    2.3064   -1.3249    0.0000 C   0  0  0  0  0  4  0  0  0  0  0  0
    3.4473   -0.6625    0.0000 C   0  0  0  0  0  4  0  0  0  0  0  0
    2.9689   -2.4781    0.0000 O   0  0  0  0  0  2  0  0  0  0  0  0
    4.2938   -2.4781    0.0000 C   0  0  0  0  0  4  0  0  0  0  0  0
    4.9563   -1.3249    0.0000 C   0  0  0  0  0  4  0  0  0  0  0  0
    6.2935   -1.3249    0.0000 C   0  0  0  0  0  4  0  0  0  0  0  0
    6.9560   -2.4781    0.0000 C   0  0  0  0  0  4  0  0  0  0  0  0
    6.2935   -3.6313    0.0000 C   0  0  0  0  0  4  0  0  0  0  0  0
    4.9563   -3.6313    0.0000 C   0  0  0  0  0  4  0  0  0  0  0  0
    8.2809   -2.4781    0.0000 C   0  0  0  0  0  4  0  0  0  0  0  0
    8.9434   -1.3249    0.0000 C   0  0  0  0  0  4  0  0  0  0  0  0
   10.2806   -1.3249    0.0000 C   0  0  0  0  0  4  0  0  0  0  0  0
   10.9431   -2.4781    0.0000 C   0  0  0  0  0  4  0  0  0  0  0  0
   10.2806   -3.6313    0.0000 C   0  0  0  0  0  4  0  0  0  0  0  0
    8.9434   -3.6313    0.0000 C   0  0  0  0  0  4  0  0  0  0  0  0
   12.2680   -2.4781    0.0000 Cl  0  0  0  0  0  1  0  0  0  0  0  0
    1.6316   -0.1840    0.0000 C   0  0  0  0  0  4  0  0  0  0  0  0
    0.0000   -1.3249    0.0000 O   0  0  0  0  0  2  0  0  0  0  0  0
    0.0000    0.0000    0.0000 C   0  0  0  0  0  4  0  0  0  0  0  0
  1  2  2  0  0  0  0 
  2  3  1  0  0  0  0 
  2 20  1  0  0  0  0 
  3  4  1  0  0  0  0 
  3  5  1  0  0  0  0 
  3 19  1  0  0  0  0 
  5  6  1  0  0  0  0 
  6  7  2  0  0  0  0 
  6 11  1  0  0  0  0 
  7  8  1  0  0  0  0 
  8  9  2  0  0  0  0 
  9 10  1  0  0  0  0 
  9 12  1  0  0  0  0 
 10 11  2  0  0  0  0 
 12 13  2  0  0  0  0 
 12 17  1  0  0  0  0 
 13 14  1  0  0  0  0 
 14 15  2  0  0  0  0 
 15 16  1  0  0  0  0 
 15 18  1  0  0  0  0 
 16 17  2  0  0  0  0 
 20 21  1  0  0  0  0 
M  END
> <CDK Fingerprint>
BAAAAAAAAAAIBABCABAABAAAAAAEAAAAgAAAAYIAAIAAAALhAAAAAAAAAAwAQAAYIAIgKACABABAAAEIQAAAAwAGEAAAAAAAAQAABAAAAMAAEAgAAAACQIGhEAAIAMAQIABAAMQgJCEAAEECQAEAAYAAAAiA0CAAEAgoAAAiAAA=

> <ActivityOutcome_CPDBAS_Rat>
active

> <TD50_Rat_mmol>
0.0157

$$$$

  CDK     0721101958

 18 19  0  0  0  0  0  0  0  0999 V2000
    0.0000   -4.6031    0.0000 C   0  0  0  0  0  4  0  0  0  0  0  0
    0.6591   -3.4550    0.0000 N   0  0  0  0  0  3  0  0  0  0  0  0
    1.9879   -3.4550    0.0000 C   0  0  0  0  0  4  0  0  0  0  0  0
    2.6577   -2.2962    0.0000 C   0  0  0  0  0  4  0  0  0  0  0  0
    3.9865   -2.2962    0.0000 C   0  0  0  0  0  4  0  0  0  0  0  0
    4.6562   -3.4550    0.0000 C   0  0  0  0  0  4  0  0  0  0  0  0
    3.9865   -4.6031    0.0000 C   0  0  0  0  0  4  0  0  0  0  0  0
    2.6577   -4.6031    0.0000 C   0  0  0  0  0  4  0  0  0  0  0  0
    5.9851   -3.4550    0.0000 N   0  0  0  0  0  3  0  0  0  0  0  0
    6.6442   -2.2962    0.0000 N   0  0  0  0  0  3  0  0  0  0  0  0
    7.9730   -2.2962    0.0000 C   0  0  0  0  0  4  0  0  0  0  0  0
    8.6428   -1.1481    0.0000 C   0  0  0  0  0  4  0  0  0  0  0  0
    9.9610   -1.1481    0.0000 C   0  0  0  0  0  4  0  0  0  0  0  0
   10.6307   -2.2962    0.0000 C   0  0  0  0  0  4  0  0  0  0  0  0
    9.9610   -3.4550    0.0000 C   0  0  0  0  0  4  0  0  0  0  0  0
    8.6428   -3.4550    0.0000 C   0  0  0  0  0  4  0  0  0  0  0  0
   10.6307    0.0000    0.0000 C   0  0  0  0  0  4  0  0  0  0  0  0
    0.0000   -2.2962    0.0000 C   0  0  0  0  0  4  0  0  0  0  0  0
  1  2  1  0  0  0  0 
  2  3  1  0  0  0  0 
  2 18  1  0  0  0  0 
  3  4  2  0  0  0  0 
  3  8  1  0  0  0  0 
  4  5  1  0  0  0  0 
  5  6  2  0  0  0  0 
  6  7  1  0  0  0  0 
  6  9  1  0  0  0  0 
  7  8  2  0  0  0  0 
  9 10  2  0  0  0  0 
 10 11  1  0  0  0  0 
 11 12  2  0  0  0  0 
 11 16  1  0  0  0  0 
 12 13  1  0  0  0  0 
 13 14  2  0  0  0  0 
 13 17  1  0  0  0  0 
 14 15  1  0  0  0  0 
 15 16  2  0  0  0  0 
M  END
> <CDK Fingerprint>
QAAgAAAAAAAAAQIAAAABAABAEABACAAEQBIAAABoEAAAAAAAAAAAQEAAIAAEAAAAAgBAAAAIoAQAEEAEAAIAAAABoAAAAQAAAAAAAgAAAAAAAACgAAAAAIEAIAAAAEAgAAAgAAACQAAACABAAACAAAIAAAAQAAADEIA=

> <ActivityOutcome_CPDBAS_Rat>
active

> <TD50_Rat_mmol>
0.0137

$$$$

  CDK     0721101958

 12 12  0  0  0  0  0  0  0  0999 V2000
    3.9879   -2.3050    0.0000 C   0  0  0  0  0  4  0  0  0  0  0  0
    2.6559   -2.3050    0.0000 C   0  0  0  0  0  4  0  0  0  0  0  0
    1.9939   -1.1565    0.0000 C   0  0  0  0  0  4  0  0  0  0  0  0
    2.6559    0.0000    0.0000 C   0  0  0  0  0  4  0  0  0  0  0  0
    3.9879    0.0000    0.0000 C   0  0  0  0  0  4  0  0  0  0  0  0
    4.6499   -1.1565    0.0000 C   0  0  0  0  0  4  0  0  0  0  0  0
    5.9818   -1.1565    0.0000 N   0  0  0  0  0  3  0  0  0  0  0  0
    6.6438   -2.3050    0.0000 C   0  0  0  0  0  4  0  0  0  0  0  0
    6.6438    0.0000    0.0000 N   0  0  0  0  0  3  0  0  0  0  0  0
    7.9758    0.0000    0.0000 O   0  0  0  0  0  2  0  0  0  0  0  0
    0.6620   -1.1565    0.0000 N   0  0  0  0  0  3  0  0  0  0  0  0
    0.0000   -2.3050    0.0000 O   0  0  0  0  0  2  0  0  0  0  0  0
  1  2  2  0  0  0  0 
  1  6  1  0  0  0  0 
  2  3  1  0  0  0  0 
  3  4  2  0  0  0  0 
  3 11  1  0  0  0  0 
  4  5  1  0  0  0  0 
  5  6  2  0  0  0  0 
  6  7  1  0  0  0  0 
  7  8  1  0  0  0  0 
  7  9  1  0  0  0  0 
  9 10  2  0  0  0  0 
 11 12  2  0  0  0  0 
M  END
> <CDK Fingerprint>
JAAACAACAAAgAAgAAAAAAEAAAIAAABhAEAABAAAESAYAAABgAA0AAAAAAEAAAAAAAAAFAAAAAgBABAAAgAQAAEAAAAAAAAAAAAAAAAAAAAAAAAAIIAAAAAAAAAAAAAAAIQAEIAAgAAAAACACAAAAAAAAAACAAAAAAAAAgIADEIA=

> <ActivityOutcome_CPDBAS_Rat>
active

> <TD50_Rat_mmol>
0.00787

$$$$

  CDK     0721101958

 23 22  0  0  0  0  0  0  0  0999 V2000
   17.2800   -2.2968    0.0000 C   0  0  0  0  0  4  0  0  0  0  0  0
   15.9521   -2.2968    0.0000 C   0  0  0  0  0  4  0  0  0  0  0  0
   15.2882   -3.4632    0.0000 C   0  0  0  0  0  4  0  0  0  0  0  0
   13.9604   -3.4632    0.0000 C   0  0  0  0  0  4  0  0  0  0  0  0
   13.2964   -4.6116    0.0000 C   0  0  0  0  0  4  0  0  0  0  0  0
   11.9686   -4.6116    0.0000 C   0  0  0  0  0  4  0  0  0  0  0  0
   11.3047   -5.7600    0.0000 C   0  0  0  0  0  4  0  0  0  0  0  0
    9.9768   -5.7600    0.0000 C   0  0  0  0  0  4  0  0  0  0  0  0
    9.3129   -6.9084    0.0000 C   0  0  0  0  0  4  0  0  0  0  0  0
    7.9671   -6.9084    0.0000 C   0  0  0  0  0  4  0  0  0  0  0  0
    7.3032   -5.7600    0.0000 C   0  0  0  0  0  4  0  0  0  0  0  0
    5.9753   -5.7600    0.0000 C   0  0  0  0  0  4  0  0  0  0  0  0
    5.3114   -4.6116    0.0000 C   0  0  0  0  0  4  0  0  0  0  0  0
    3.9836   -4.6116    0.0000 C   0  0  0  0  0  4  0  0  0  0  0  0
    3.3196   -5.7600    0.0000 C   0  0  0  0  0  4  0  0  0  0  0  0
    1.9918   -5.7600    0.0000 C   0  0  0  0  0  4  0  0  0  0  0  0
    1.3279   -6.9084    0.0000 C   0  0  0  0  0  4  0  0  0  0  0  0
    0.0000   -6.9084    0.0000 C   0  0  0  0  0  4  0  0  0  0  0  0
   17.9439   -3.4632    0.0000 O   0  0  0  0  0  2  0  0  0  0  0  0
   17.9439   -1.1484    0.0000 O   0  0  0  0  0  2  0  0  0  0  0  0
    5.9753   -3.4632    0.0000 O   0  0  0  0  0  2  0  0  0  0  0  0
    5.3114   -2.2968    0.0000 O   0  0  0  0  0  2  0  0  0  0  0  0
   17.2800    0.0000    0.0000 C   0  0  0  0  0  4  0  0  0  0  0  0
  1  2  1  0  0  0  0 
  1 19  2  0  0  0  0 
  1 20  1  0  0  0  0 
  2  3  1  0  0  0  0 
  3  4  1  0  0  0  0 
  4  5  1  0  0  0  0 
  5  6  1  0  0  0  0 
  6  7  1  0  0  0  0 
  7  8  1  0  0  0  0 
  8  9  1  0  0  0  0 
  9 10  2  0  0  0  0 
 10 11  1  0  0  0  0 
 11 12  2  0  0  0  0 
 12 13  1  0  0  0  0 
 13 14  1  0  0  0  0 
 13 21  1  0  0  0  0 
 14 15  1  0  0  0  0 
 15 16  1  0  0  0  0 
 16 17  1  0  0  0  0 
 17 18  1  0  0  0  0 
 20 23  1  0  0  0  0 
 21 22  1  0  0  0  0 
M  END
> <CDK Fingerprint>
QAABCAAAAgAAACoRAAQAACAAAgAEAADAAAAEgBAAAAFRCGAAAAIAAAAAACAQABAgAiAAKBAQkAQIADBAQAQAAAAAAAQAAAAABAQAQAABAABAAAABAABUAAkQAAAAAAAAAEAAACBgAAAAAAAREAABAAAAQADQGAAgAABABAAAIg==

> <ActivityOutcome_CPDBAS_Rat>
inactive

$$$$

  CDK     0721101958

 21 20  0  0  0  0  0  0  0  0999 V2000
   11.2936    0.0000    0.0000 C   0  0  0  0  0  4  0  0  0  0  0  0
   11.9636   -1.1605    0.0000 C   0  0  0  0  0  4  0  0  0  0  0  0
   11.2936   -2.3090    0.0000 C   0  0  0  0  0  4  0  0  0  0  0  0
   11.9636   -3.4575    0.0000 C   0  0  0  0  0  4  0  0  0  0  0  0
   11.2936   -4.6060    0.0000 C   0  0  0  0  0  4  0  0  0  0  0  0
   11.9636   -5.7665    0.0000 C   0  0  0  0  0  4  0  0  0  0  0  0
   11.2936   -6.9150    0.0000 C   0  0  0  0  0  4  0  0  0  0  0  0
    9.9657   -6.9150    0.0000 C   0  0  0  0  0  4  0  0  0  0  0  0
    9.3077   -8.0635    0.0000 C   0  0  0  0  0  4  0  0  0  0  0  0
    7.9797   -8.0635    0.0000 C   0  0  0  0  0  4  0  0  0  0  0  0
    7.3098   -6.9150    0.0000 C   0  0  0  0  0  4  0  0  0  0  0  0
    5.9818   -6.9150    0.0000 C   0  0  0  0  0  4  0  0  0  0  0  0
    5.3118   -5.7665    0.0000 C   0  0  0  0  0  4  0  0  0  0  0  0
    3.9839   -5.7665    0.0000 C   0  0  0  0  0  4  0  0  0  0  0  0
    3.3259   -4.6060    0.0000 C   0  0  0  0  0  4  0  0  0  0  0  0
    1.9979   -4.6060    0.0000 C   0  0  0  0  0  4  0  0  0  0  0  0
    1.3280   -3.4575    0.0000 C   0  0  0  0  0  4  0  0  0  0  0  0
    1.9979   -2.3090    0.0000 C   0  0  0  0  0  4  0  0  0  0  0  0
    1.3280   -1.1605    0.0000 O   0  0  0  0  0  2  0  0  0  0  0  0
    0.0000   -1.1605    0.0000 C   0  0  0  0  0  4  0  0  0  0  0  0
    3.3259   -2.3090    0.0000 O   0  0  0  0  0  2  0  0  0  0  0  0
  1  2  1  0  0  0  0 
  2  3  1  0  0  0  0 
  3  4  1  0  0  0  0 
  4  5  1  0  0  0  0 
  5  6  1  0  0  0  0 
  6  7  2  0  0  0  0 
  7  8  1  0  0  0  0 
  8  9  1  0  0  0  0 
  9 10  2  0  0  0  0 
 10 11  1  0  0  0  0 
 11 12  1  0  0  0  0 
 12 13  1  0  0  0  0 
 13 14  1  0  0  0  0 
 14 15  1  0  0  0  0 
 15 16  1  0  0  0  0 
 16 17  1  0  0  0  0 
 17 18  1  0  0  0  0 
 18 19  1  0  0  0  0 
 18 21  2  0  0  0  0 
 19 20  1  0  0  0  0 
M  END
> <CDK Fingerprint>
QAAAAAAAAAAAAAIRAAQAACAAAoAEQADAAAAAgAEAAAFRCOAAAAAAAAABACAQARAgIiAAAAAQAAAAACBEQAQAAAAAAAQAAAAABAQAQAABAAAAAAAAAABAAAEQAAAAAAABAEAAAABAACAAAAAAEAABEAAAAADQGAAAAABABCAAIA==

> <ActivityOutcome_CPDBAS_Rat>
inactive

$$$$

  CDK     0721101958

  7  6  0  0  0  0  0  0  0  0999 V2000
    0.0000   -2.3052    0.0000 O   0  0  0  0  0  2  0  0  0  0  0  0
    1.3306   -2.3052    0.0000 C   0  0  0  0  0  4  0  0  0  0  0  0
    1.9941   -1.1508    0.0000 C   0  0  0  0  0  4  0  0  0  0  0  0
    3.3247   -1.1508    0.0000 C   0  0  0  0  0  4  0  0  0  0  0  0
    1.3306    0.0000    0.0000 C   0  0  0  0  0  4  0  0  0  0  0  0
    1.9941   -3.4560    0.0000 O   0  0  0  0  0  2  0  0  0  0  0  0
    3.3247   -3.4560    0.0000 C   0  0  0  0  0  4  0  0  0  0  0  0
  1  2  2  0  0  0  0 
  2  3  1  0  0  0  0 
  2  6  1  0  0  0  0 
  3  4  2  0  0  0  0 
  3  5  1  0  0  0  0 
  6  7  1  0  0  0  0 
M  END
> <CDK Fingerprint>
QAAAAAAAAAAAAAIAAAAAAAAAAAAAAACAAAAAgAAAAAAAAGAAAAAAAAAAAAAAABAgAgAAABAQAAAAAABAAAAAAAAAAAAAAAAAAAAAAAAAAAAAAAAAAABAAAAQAAAAAAAAAEAAAAAAAAAAAAAAAAABAQAAAABwAAAAAAAAAAAAAA==

> <ActivityOutcome_CPDBAS_Rat>
inactive

$$$$

  CDK     0721101958

 10  9  0  0  0  0  0  0  0  0999 V2000
    3.4535    0.0000    0.0000 N   0  0  0  0  0  3  0  0  0  0  0  0
    3.4535   -1.3261    0.0000 C   0  0  0  0  0  4  0  0  0  0  0  0
    4.6069   -1.9961    0.0000 N   0  0  0  0  0  3  0  0  0  0  0  0
    5.7535   -1.3261    0.0000 N   0  0  0  0  0  3  0  0  0  0  0  0
    6.9070   -1.9961    0.0000 O   0  0  0  0  0  2  0  0  0  0  0  0
    4.6069   -3.3223    0.0000 C   0  0  0  0  0  4  0  0  0  0  0  0
    2.3000   -1.9961    0.0000 N   0  0  0  0  0  3  0  0  0  0  0  0
    1.1535   -1.3261    0.0000 N   0  0  0  0  0  4  0  0  0  0  0  0
    1.1535    0.0000    0.0000 O   0  0  0  0  0  2  0  0  0  0  0  0
    0.0000   -1.9961    0.0000 O   0  0  0  0  0  1  0  0  0  0  0  0
  1  2  2  0  0  0  0 
  2  3  1  0  0  0  0 
  2  7  1  0  0  0  0 
  3  4  1  0  0  0  0 
  3  6  1  0  0  0  0 
  4  5  2  0  0  0  0 
  7  8  1  0  0  0  0 
  8  9  2  0  0  0  0 
  8 10  1  0  0  0  0 
M  CHG  1   8   1
M  CHG  1  10  -1
M  END
> <CDK Fingerprint>
QABgEABIAAAAAAAAAAAAAAAAAIAAAAAAAAQEIABgAAADAAgAAAAAAAAAAAABAAZAAAAAAAAAgAAAAAAAAAAAAAAAAAAAAAAAAAAACAQAAAAAAAAAACIAAAAAAAAUIAAAAAAAAAAAAAAAAAAAAAAAAAAAAAAAAAADAAA=

> <ActivityOutcome_CPDBAS_Rat>
active

> <TD50_Rat_mmol>
0.00546

$$$$

  CDK     0721101958

 20 22  0  0  0  0  0  0  0  0999 V2000
    4.6527   -4.6048    0.0000 O   0  0  0  0  0  2  0  0  0  0  0  0
    3.9903   -3.4556    0.0000 C   0  0  0  0  0  4  0  0  0  0  0  0
    4.6527   -2.2984    0.0000 C   0  0  0  0  0  4  0  0  0  0  0  0
    5.9855   -2.2984    0.0000 C   0  0  0  0  0  4  0  0  0  0  0  0
    6.6479   -1.1492    0.0000 C   0  0  0  0  0  4  0  0  0  0  0  0
    5.9855    0.0000    0.0000 C   0  0  0  0  0  4  0  0  0  0  0  0
    4.6527    0.0000    0.0000 C   0  0  0  0  0  4  0  0  0  0  0  0
    3.9903   -1.1492    0.0000 C   0  0  0  0  0  4  0  0  0  0  0  0
    2.6576   -1.1492    0.0000 C   0  0  0  0  0  4  0  0  0  0  0  0
    1.9952    0.0000    0.0000 O   0  0  0  0  0  2  0  0  0  0  0  0
    1.9952   -2.2984    0.0000 C   0  0  0  0  0  4  0  0  0  0  0  0
    2.6576   -3.4556    0.0000 C   0  0  0  0  0  4  0  0  0  0  0  0
    1.9952   -4.6048    0.0000 C   0  0  0  0  0  4  0  0  0  0  0  0
    0.6624   -4.6048    0.0000 C   0  0  0  0  0  4  0  0  0  0  0  0
    0.0000   -3.4556    0.0000 C   0  0  0  0  0  4  0  0  0  0  0  0
    0.6624   -2.2984    0.0000 C   0  0  0  0  0  4  0  0  0  0  0  0
    7.9806   -1.1492    0.0000 C   0  0  0  0  0  4  0  0  0  0  0  0
    6.6479   -3.4556    0.0000 N   0  0  0  0  0  4  0  0  0  0  0  0
    7.9806   -3.4556    0.0000 O   0  0  0  0  0  2  0  0  0  0  0  0
    5.9855   -4.6048    0.0000 O   0  0  0  0  0  1  0  0  0  0  0  0
  1  2  2  0  0  0  0 
  2  3  1  0  0  0  0 
  2 12  1  0  0  0  0 
  3  4  2  0  0  0  0 
  3  8  1  0  0  0  0 
  4  5  1  0  0  0  0 
  4 18  1  0  0  0  0 
  5  6  2  0  0  0  0 
  5 17  1  0  0  0  0 
  6  7  1  0  0  0  0 
  7  8  2  0  0  0  0 
  8  9  1  0  0  0  0 
  9 10  2  0  0  0  0 
  9 11  1  0  0  0  0 
 11 12  2  0  0  0  0 
 11 16  1  0  0  0  0 
 12 13  1  0  0  0  0 
 13 14  2  0  0  0  0 
 14 15  1  0  0  0  0 
 15 16  2  0  0  0  0 
 18 19  2  0  0  0  0 
 18 20  1  0  0  0  0 
M  CHG  1  18   1
M  CHG  1  20  -1
M  END
> <CDK Fingerprint>
AwALECIAADIFoYgAgSABEAkAIAACGEAAAAAABAxsBnhAAGgBRhEGAIAAAQoAAwBwQARABwEBAEAFCBBAAAACABQZAQCAEEAAAAAIQADiAQgAAIDgAKAAQIAAAAAYgCAgAEwIQCEAAABCJiJAICQEIAAUIIYQCkEoQABGAAISAA==

> <ActivityOutcome_CPDBAS_Rat>
active

> <TD50_Rat_mmol>
0.317

$$$$

  CDK     0721101958

 17 18  0  0  0  0  0  0  0  0999 V2000
    8.4390   -1.2718    0.0000 C   0  0  0  0  0  4  0  0  0  0  0  0
    9.7000   -1.6813    0.0000 N   0  0  0  0  0  3  0  0  0  0  0  0
    9.7000   -3.0070    0.0000 C   0  0  0  0  0  4  0  0  0  0  0  0
    8.4390   -3.4166    0.0000 C   0  0  0  0  0  4  0  0  0  0  0  0
    7.6522   -2.3388    0.0000 N   0  0  0  0  0  3  0  0  0  0  0  0
    6.3265   -2.3388    0.0000 N   0  0  0  0  0  3  0  0  0  0  0  0
    5.6583   -3.4920    0.0000 C   0  0  0  0  0  4  0  0  0  0  0  0
    4.3327   -3.4920    0.0000 C   0  0  0  0  0  4  0  0  0  0  0  0
    3.5567   -4.5698    0.0000 C   0  0  0  0  0  4  0  0  0  0  0  0
    2.2849   -4.1602    0.0000 C   0  0  0  0  0  4  0  0  0  0  0  0
    2.2849   -2.8346    0.0000 C   0  0  0  0  0  4  0  0  0  0  0  0
    3.5567   -2.4142    0.0000 O   0  0  0  0  0  2  0  0  0  0  0  0
    1.2179   -2.0478    0.0000 N   0  0  0  0  0  4  0  0  0  0  0  0
    0.0000   -2.5867    0.0000 O   0  0  0  0  0  2  0  0  0  0  0  0
    1.3580   -0.7221    0.0000 O   0  0  0  0  0  1  0  0  0  0  0  0
   10.7778   -3.7938    0.0000 C   0  0  0  0  0  4  0  0  0  0  0  0
    8.0294    0.0000    0.0000 O   0  0  0  0  0  2  0  0  0  0  0  0
  1  2  1  0  0  0  0 
  1  5  1  0  0  0  0 
  1 17  2  0  0  0  0 
  2  3  1  0  0  0  0 
  3  4  1  0  0  0  0 
  3 16  1  0  0  0  0 
  4  5  1  0  0  0  0 
  5  6  1  0  0  0  0 
  6  7  2  0  0  0  0 
  7  8  1  0  0  0  0 
  8  9  2  0  0  0  0 
  8 12  1  0  0  0  0 
  9 10  1  0  0  0  0 
 10 11  2  0  0  0  0 
 11 12  1  0  0  0  0 
 11 13  1  0  0  0  0 
 13 14  2  0  0  0  0 
 13 15  1  0  0  0  0 
M  CHG  1  13   1
M  CHG  1  15  -1
M  END
> <CDK Fingerprint>
DhAAMAJBICMQEEoAAeIgAEooYAAAEuVQBADQQAQgJEBAIGAgBACCABICAAEAKYEggMAAAkAAQEsABgDABIASgAAQEAJgAAEAAgABUD2AgAAAA8AwChQAQIAAACAggQciBEQgFCQFDQIAMglAkDIAAADIpALQAEgAAAACIAMgIA==

> <ActivityOutcome_CPDBAS_Rat>
active

> <TD50_Rat_mmol>
0.0224

$$$$

  CDK     0721101958

 12 12  0  0  0  0  0  0  0  0999 V2000
    3.9920   -3.4593    0.0000 C   0  0  0  0  0  4  0  0  0  0  0  0
    2.6573   -3.4593    0.0000 C   0  0  0  0  0  4  0  0  0  0  0  0
    1.9930   -4.6084    0.0000 C   0  0  0  0  0  4  0  0  0  0  0  0
    0.6643   -4.6084    0.0000 C   0  0  0  0  0  4  0  0  0  0  0  0
    0.0000   -3.4593    0.0000 C   0  0  0  0  0  4  0  0  0  0  0  0
    0.6643   -2.3042    0.0000 C   0  0  0  0  0  4  0  0  0  0  0  0
    1.9930   -2.3042    0.0000 C   0  0  0  0  0  4  0  0  0  0  0  0
    4.6563   -4.6084    0.0000 O   0  0  0  0  0  2  0  0  0  0  0  0
    4.6563   -2.3042    0.0000 N   0  0  0  0  0  3  0  0  0  0  0  0
    3.9920   -1.1551    0.0000 N   0  0  0  0  0  3  0  0  0  0  0  0
    4.6563    0.0000    0.0000 O   0  0  0  0  0  2  0  0  0  0  0  0
    5.9850   -2.3042    0.0000 C   0  0  0  0  0  4  0  0  0  0  0  0
  1  2  1  0  0  0  0 
  1  8  2  0  0  0  0 
  1  9  1  0  0  0  0 
  2  3  1  0  0  0  0 
  2  7  2  0  0  0  0 
  3  4  2  0  0  0  0 
  4  5  1  0  0  0  0 
  5  6  2  0  0  0  0 
  6  7  1  0  0  0  0 
  9 10  1  0  0  0  0 
  9 12  1  0  0  0  0 
 10 11  2  0  0  0  0 
M  END
> <CDK Fingerprint>
EAAAAAAAAABCAIAAAACIAAAgACAAAAAAAgAAAAQAACQBAABoAAACBAAAAAAAAAAAIAABBAACAABAAAAAgAAAAoAEAAAAAAAAAAAAABAAAIAAAAAAAAAAAAGAAAAAAIAAIABEIEAgAAAAgAACSAAAAEAAAhCAUghAAAAAAAADAAA=

> <ActivityOutcome_CPDBAS_Rat>
active

> <TD50_Rat_mmol>
0.0197

$$$$

  CDK     0721101958

 15 14  0  0  0  0  0  0  0  0999 V2000
    3.4524   -3.3258    0.0000 O   0  0  0  0  0  2  0  0  0  0  0  0
    8.0555   -2.0024    0.0000 C   0  0  0  0  0  4  0  0  0  0  0  0
   10.3571   -2.0024    0.0000 C   0  0  0  0  0  4  0  0  0  0  0  0
    6.9047   -1.3349    0.0000 C   0  0  0  0  0  4  0  0  0  0  0  0
    9.2063   -1.3349    0.0000 C   0  0  0  0  0  4  0  0  0  0  0  0
   11.5078   -1.3349    0.0000 O   0  0  0  0  0  2  0  0  0  0  0  0
    9.2063    0.0000    0.0000 N   0  0  0  0  0  3  0  0  0  0  0  0
    5.7539   -2.0024    0.0000 C   0  0  0  0  0  4  0  0  0  0  0  0
    4.6031   -1.3349    0.0000 N   0  0  0  0  0  3  0  0  0  0  0  0
   10.3571   -3.3258    0.0000 O   0  0  0  0  0  2  0  0  0  0  0  0
    3.4524   -2.0024    0.0000 C   0  0  0  0  0  4  0  0  0  0  0  0
    2.3016   -1.3349    0.0000 N   0  0  0  0  0  3  0  0  0  0  0  0
    1.1508   -2.0024    0.0000 N   0  0  0  0  0  3  0  0  0  0  0  0
    0.0000   -1.3349    0.0000 O   0  0  0  0  0  2  0  0  0  0  0  0
    2.3016    0.0000    0.0000 C   0  0  0  0  0  4  0  0  0  0  0  0
  1 11  2  0  0  0  0 
  2  4  1  0  0  0  0 
  2  5  1  0  0  0  0 
  3  5  1  0  0  0  0 
  3  6  1  0  0  0  0 
  3 10  2  0  0  0  0 
  4  8  1  0  0  0  0 
  5  7  1  6  0  0  0 
  8  9  1  0  0  0  0 
  9 11  1  0  0  0  0 
 11 12  1  0  0  0  0 
 12 13  1  0  0  0  0 
 12 15  1  0  0  0  0 
 13 14  2  0  0  0  0 
M  END
> <CDK Fingerprint>
AwAIAAAAAhAASgABAAAAAAAAAAAABAAAAAAgAAAEBQEgYAAAAoAAAAAAAACBGCIAYQICAAAAAAAAYMAgAAKAAAAAAQAAQQAAAAAAACCAAQBAACCAQAAACBAAACAAAAAAZCAIARAAAAAAIAAQAAGgAEAAAFAQAAAAEAAKCwAA

> <ActivityOutcome_CPDBAS_Rat>
active

> <TD50_Rat_mmol>
0.00361

$$$$

  CDK     0721101958

  9  9  0  0  0  0  0  0  0  0999 V2000
    1.9976   -3.4550    0.0000 C   0  0  0  0  0  4  0  0  0  0  0  0
    0.6659   -3.4550    0.0000 C   0  0  0  0  0  4  0  0  0  0  0  0
    0.0000   -2.3049    0.0000 C   0  0  0  0  0  4  0  0  0  0  0  0
    0.6659   -1.1501    0.0000 C   0  0  0  0  0  4  0  0  0  0  0  0
    1.9976   -1.1501    0.0000 C   0  0  0  0  0  4  0  0  0  0  0  0
    2.6588   -2.3049    0.0000 N   0  0  0  0  0  3  0  0  0  0  0  0
    3.9905   -2.3049    0.0000 N   0  0  0  0  0  3  0  0  0  0  0  0
    4.6563   -3.4550    0.0000 O   0  0  0  0  0  2  0  0  0  0  0  0
    2.6588    0.0000    0.0000 C   0  0  0  0  0  4  0  0  0  0  0  0
  1  2  1  0  0  0  0 
  1  6  1  0  0  0  0 
  2  3  1  0  0  0  0 
  3  4  1  0  0  0  0 
  4  5  1  0  0  0  0 
  5  6  1  0  0  0  0 
  5  9  1  1  0  0  0 
  6  7  1  0  0  0  0 
  7  8  2  0  0  0  0 
M  END
> <CDK Fingerprint>
EAAAAAAAAgAAAAABgAABAAAAABAAAEAAAAAAAAAEAQEAYAAAAAAAAAAAAAAAECAAEQAAAAAAAABAAMAAAAAAAAAAAAAAQAAAAAAAAACAAAAAACAAQAAAAAAAAAEAAABABCAAAQAIAAAIAAAQAAAAAAAAAAAAAAAAAAAACwAA

> <ActivityOutcome_CPDBAS_Rat>
active

> <TD50_Rat_mmol>
0.159

$$$$

  CDK     0721101958

  9  9  0  0  0  0  0  0  0  0999 V2000
    1.9976   -3.4550    0.0000 C   0  0  0  0  0  4  0  0  0  0  0  0
    0.6659   -3.4550    0.0000 C   0  0  0  0  0  4  0  0  0  0  0  0
    0.0000   -2.3049    0.0000 C   0  0  0  0  0  4  0  0  0  0  0  0
    0.6659   -1.1501    0.0000 C   0  0  0  0  0  4  0  0  0  0  0  0
    1.9976   -1.1501    0.0000 C   0  0  0  0  0  4  0  0  0  0  0  0
    2.6588   -2.3049    0.0000 N   0  0  0  0  0  3  0  0  0  0  0  0
    3.9905   -2.3049    0.0000 N   0  0  0  0  0  3  0  0  0  0  0  0
    4.6563   -3.4550    0.0000 O   0  0  0  0  0  2  0  0  0  0  0  0
    2.6588    0.0000    0.0000 C   0  0  0  0  0  4  0  0  0  0  0  0
  1  2  1  0  0  0  0 
  1  6  1  0  0  0  0 
  2  3  1  0  0  0  0 
  3  4  1  0  0  0  0 
  4  5  1  0  0  0  0 
  5  6  1  0  0  0  0 
  5  9  1  6  0  0  0 
  6  7  1  0  0  0  0 
  7  8  2  0  0  0  0 
M  END
> <CDK Fingerprint>
EAAAAAAAAgAAAAABgAABAAAAABAAAEAAAAAAAAAEAQEAYAAAAAAAAAAAAAAAECAAEQAAAAAAAABAAMAAAAAAAAAAAAAAQAAAAAAAAACAAAAAACAAQAAAAAAAAAEAAABABCAAAQAIAAAIAAAQAAAAAAAAAAAAAAAAAAAACwAA

> <ActivityOutcome_CPDBAS_Rat>
active

> <TD50_Rat_mmol>
0.103

$$$$

  CDK     0721101958

 16 16  0  0  0  0  0  0  0  0999 V2000
    5.4978   -2.9728    0.0000 S   0  0  0  0  0  2  0  0  0  0  0  0
    6.6529   -2.3012    0.0000 P   0  0  0  0  0  5  0  0  0  0  0  0
    5.9813   -1.1551    0.0000 O   0  0  0  0  0  2  0  0  0  0  0  0
    4.6561   -1.1551    0.0000 C   0  0  0  0  0  4  0  0  0  0  0  0
    3.9935   -2.3012    0.0000 C   0  0  0  0  0  4  0  0  0  0  0  0
    2.6594   -2.3012    0.0000 C   0  0  0  0  0  4  0  0  0  0  0  0
    1.9968   -1.1551    0.0000 C   0  0  0  0  0  4  0  0  0  0  0  0
    2.6594    0.0000    0.0000 C   0  0  0  0  0  4  0  0  0  0  0  0
    3.9935    0.0000    0.0000 C   0  0  0  0  0  4  0  0  0  0  0  0
    0.6626   -1.1551    0.0000 N   0  0  0  0  0  4  0  0  0  0  0  0
    0.0000   -2.3012    0.0000 O   0  0  0  0  0  2  0  0  0  0  0  0
    0.0000    0.0000    0.0000 O   0  0  0  0  0  1  0  0  0  0  0  0
    7.7990   -1.6386    0.0000 O   0  0  0  0  0  2  0  0  0  0  0  0
    8.9541   -2.3012    0.0000 C   0  0  0  0  0  4  0  0  0  0  0  0
    7.3155   -3.4563    0.0000 O   0  0  0  0  0  2  0  0  0  0  0  0
    8.6497   -3.4563    0.0000 C   0  0  0  0  0  4  0  0  0  0  0  0
  1  2  2  0  0  0  0 
  2  3  1  0  0  0  0 
  2 13  1  0  0  0  0 
  2 15  1  0  0  0  0 
  3  4  1  0  0  0  0 
  4  5  2  0  0  0  0 
  4  9  1  0  0  0  0 
  5  6  1  0  0  0  0 
  6  7  2  0  0  0  0 
  7  8  1  0  0  0  0 
  7 10  1  0  0  0  0 
  8  9  2  0  0  0  0 
 10 11  2  0  0  0  0 
 10 12  1  0  0  0  0 
 13 14  1  0  0  0  0 
 15 16  1  0  0  0  0 
M  CHG  1  10   1
M  CHG  1  12  -1
M  END
> <CDK Fingerprint>
ECIAACBAAAoAAAAAAAgAAAAAGUgAAAEAAAQABgAAA2EUBAAAAAAAAgAgAAAABABgAgAAIU4EQAAAAAAAAIEAAAAAAAAAAAAIAACAgCAJAAAAAAAAAAUAAgAUAAAgAAQAACAgCAJAIAIASAAAAAgAAIAACAAAAgBDAAMQAA==

> <ActivityOutcome_CPDBAS_Rat>
inactive

$$$$

  CDK     0721101958

  7  7  0  0  0  0  0  0  0  0999 V2000
    0.0000   -2.3405    0.0000 O   0  0  0  0  0  2  0  0  0  0  0  0
    1.3291   -2.3405    0.0000 C   0  0  0  0  0  4  0  0  0  0  0  0
    2.1116   -1.2642    0.0000 N   0  0  0  0  0  3  0  0  0  0  0  0
    3.3758   -1.6742    0.0000 C   0  0  0  0  0  4  0  0  0  0  0  0
    3.3758   -3.0067    0.0000 C   0  0  0  0  0  4  0  0  0  0  0  0
    2.1116   -3.4168    0.0000 C   0  0  0  0  0  4  0  0  0  0  0  0
    1.7015    0.0000    0.0000 C   0  0  0  0  0  4  0  0  0  0  0  0
  1  2  2  0  0  0  0 
  2  3  1  0  0  0  0 
  2  6  1  0  0  0  0 
  3  4  1  0  0  0  0 
  3  7  1  0  0  0  0 
  4  5  1  0  0  0  0 
  5  6  1  0  0  0  0 
M  END
> <CDK Fingerprint>
EAAAAAAAAgAAAAABAAAAAAAAAAAAAAAAAAAAAAAABAAAYAAAAAAAAAAAAAABACAAAAACAAAAAAAAIMAAAACAAAAAAAAAQAAAAAAAAACAAAAAACAAQAAABAAAAAAAAAAAQAAAAAAAAAAAAAAQAAEAAAAAAFAAAAAAAAAAAgAA

> <ActivityOutcome_CPDBAS_Rat>
inactive

$$$$

  CDK     0721101958

  9  9  0  0  0  0  0  0  0  0999 V2000
    4.6539   -1.1542    0.0000 C   0  0  0  0  0  4  0  0  0  0  0  0
    3.9884   -2.3037    0.0000 C   0  0  0  0  0  4  0  0  0  0  0  0
    2.6574   -2.3037    0.0000 C   0  0  0  0  0  4  0  0  0  0  0  0
    1.9965   -1.1542    0.0000 C   0  0  0  0  0  4  0  0  0  0  0  0
    0.6655   -1.1542    0.0000 C   0  0  0  0  0  4  0  0  0  0  0  0
    0.0000   -2.3037    0.0000 O   0  0  0  0  0  2  0  0  0  0  0  0
    0.0000    0.0000    0.0000 C   0  0  0  0  0  4  0  0  0  0  0  0
    3.9884    0.0000    0.0000 C   0  0  0  0  0  4  0  0  0  0  0  0
    2.6574    0.0000    0.0000 C   0  0  0  0  0  4  0  0  0  0  0  0
  1  2  2  0  0  0  0 
  1  8  1  0  0  0  0 
  2  3  1  0  0  0  0 
  3  4  2  0  0  0  0 
  4  5  1  0  0  0  0 
  4  9  1  0  0  0  0 
  5  6  1  0  0  0  0 
  5  7  1  0  0  0  0 
  8  9  2  0  0  0  0 
M  END
> <CDK Fingerprint>
AgAAAAAAAAAAAAAAAAAAAAAAAAAACAAAYAAAAAAAAAAAAAAAACAAAAAAAAAgQAAAAEAAAAAABAgAAAAAAAAAAAAAAAAAAAAAAAAAAAAAgBAAAACAACAAAABAIAQAAAAAAkAABAgAgBQAgAAAAAABAAAAAAAA

> <ActivityOutcome_CPDBAS_Rat>
active

> <TD50_Rat_mmol>
3.75

$$$$

  CDK     0721101958

  9  9  0  0  0  0  0  0  0  0999 V2000
    0.0000   -2.6589    0.0000 O   0  0  0  0  0  2  0  0  0  0  0  0
    1.1520   -1.9953    0.0000 C   0  0  0  0  0  4  0  0  0  0  0  0
    1.1520   -0.6636    0.0000 C   0  0  0  0  0  4  0  0  0  0  0  0
    2.3041    0.0000    0.0000 C   0  0  0  0  0  4  0  0  0  0  0  0
    3.4561   -0.6636    0.0000 C   0  0  0  0  0  4  0  0  0  0  0  0
    3.4561   -1.9953    0.0000 C   0  0  0  0  0  4  0  0  0  0  0  0
    2.3041   -2.6589    0.0000 C   0  0  0  0  0  4  0  0  0  0  0  0
    4.6082   -2.6589    0.0000 C   0  0  0  0  0  4  0  0  0  0  0  0
    0.0000    0.0000    0.0000 O   0  0  0  0  0  2  0  0  0  0  0  0
  1  2  1  0  0  0  0 
  2  3  2  0  0  0  0 
  2  7  1  0  0  0  0 
  3  4  1  0  0  0  0 
  3  9  1  0  0  0  0 
  4  5  2  0  0  0  0 
  5  6  1  0  0  0  0 
  6  7  2  0  0  0  0 
  6  8  1  0  0  0  0 
M  END
> <CDK Fingerprint>
AgAAAAAAAAAAAAAAAAAAAAAAAAAAAAACYQAAAICAAAAAAAAAACAAACAAAAAAQAAAAAAAAAAABAAAAAAAAgAAAAAAAACAABAAAAAAAAAAgAAAAACAACAAAABAICAAAAAAAkAAAAAAAAAAgAAAAAAAAAAAAAAA

> <ActivityOutcome_CPDBAS_Rat>
active

> <TD50_Rat_mmol>
2

$$$$

  CDK     0721101958

 21 25  0  0  0  0  0  0  0  0999 V2000
    9.9762   -1.1572    0.0000 C   0  0  0  0  0  4  0  0  0  0  0  0
    8.6494   -1.1572    0.0000 C   0  0  0  0  0  4  0  0  0  0  0  0
    7.9809   -2.3045    0.0000 C   0  0  0  0  0  4  0  0  0  0  0  0
    6.6541   -2.3045    0.0000 C   0  0  0  0  0  4  0  0  0  0  0  0
    5.9857   -1.1572    0.0000 C   0  0  0  0  0  4  0  0  0  0  0  0
    4.6589   -1.1572    0.0000 C   0  0  0  0  0  4  0  0  0  0  0  0
    3.9905   -2.3045    0.0000 C   0  0  0  0  0  4  0  0  0  0  0  0
    4.6589   -3.4617    0.0000 C   0  0  0  0  0  4  0  0  0  0  0  0
    5.9857   -3.4617    0.0000 C   0  0  0  0  0  4  0  0  0  0  0  0
    7.0232   -4.2898    0.0000 C   0  0  0  0  0  4  0  0  0  0  0  0
    8.1805   -3.6214    0.0000 C   0  0  0  0  0  4  0  0  0  0  0  0
    3.9905   -4.6090    0.0000 C   0  0  0  0  0  4  0  0  0  0  0  0
    2.6636   -4.6090    0.0000 C   0  0  0  0  0  4  0  0  0  0  0  0
    1.9952   -3.4617    0.0000 C   0  0  0  0  0  4  0  0  0  0  0  0
    0.6684   -3.4617    0.0000 C   0  0  0  0  0  4  0  0  0  0  0  0
    0.0000   -2.3045    0.0000 C   0  0  0  0  0  4  0  0  0  0  0  0
    0.6684   -1.1572    0.0000 C   0  0  0  0  0  4  0  0  0  0  0  0
    1.9952   -1.1572    0.0000 C   0  0  0  0  0  4  0  0  0  0  0  0
    2.6636   -2.3045    0.0000 C   0  0  0  0  0  4  0  0  0  0  0  0
    6.6541    0.0000    0.0000 C   0  0  0  0  0  4  0  0  0  0  0  0
    7.9809    0.0000    0.0000 C   0  0  0  0  0  4  0  0  0  0  0  0
  1  2  1  0  0  0  0 
  2  3  2  0  0  0  0 
  2 21  1  0  0  0  0 
  3  4  1  0  0  0  0 
  3 11  1  0  0  0  0 
  4  5  2  0  0  0  0 
  4  9  1  0  0  0  0 
  5  6  1  0  0  0  0 
  5 20  1  0  0  0  0 
  6  7  2  0  0  0  0 
  7  8  1  0  0  0  0 
  7 19  1  0  0  0  0 
  8  9  2  0  0  0  0 
  8 12  1  0  0  0  0 
  9 10  1  0  0  0  0 
 10 11  1  0  0  0  0 
 12 13  2  0  0  0  0 
 13 14  1  0  0  0  0 
 14 15  2  0  0  0  0 
 14 19  1  0  0  0  0 
 15 16  1  0  0  0  0 
 16 17  2  0  0  0  0 
 17 18  1  0  0  0  0 
 18 19  2  0  0  0  0 
 20 21  2  0  0  0  0 
M  END
> <CDK Fingerprint>
EAAAAAAACAAAAAAAAAAAAAAAAAAECAAQQAAAAAAAAAAAAAAABDAAAAgAAAAAQAAAAECACAAAFAgAAACAAAQAAAgAAIAAACAEgIAAgAAAgAAEAAiAACAICABAIAAAAIAAAkAQBAAAABwggAAABEAAAAAAAQAA

> <ActivityOutcome_CPDBAS_Rat>
active

> <TD50_Rat_mmol>
0.00183

$$$$

  CDK     0721101958

 17 18  0  0  0  0  0  0  0  0999 V2000
    0.0000   -3.9880    0.0000 Cl  0  0  0  0  0  1  0  0  0  0  0  0
    1.1513   -3.3249    0.0000 C   0  0  0  0  0  4  0  0  0  0  0  0
    1.1513   -1.9894    0.0000 C   0  0  0  0  0  4  0  0  0  0  0  0
    2.3026   -1.3263    0.0000 C   0  0  0  0  0  4  0  0  0  0  0  0
    3.4538   -1.9894    0.0000 C   0  0  0  0  0  4  0  0  0  0  0  0
    3.4538   -3.3249    0.0000 C   0  0  0  0  0  4  0  0  0  0  0  0
    2.3026   -3.9880    0.0000 C   0  0  0  0  0  4  0  0  0  0  0  0
    4.6051   -3.9880    0.0000 C   0  0  0  0  0  4  0  0  0  0  0  0
    5.7564   -3.3249    0.0000 C   0  0  0  0  0  4  0  0  0  0  0  0
    5.7564   -1.9894    0.0000 C   0  0  0  0  0  4  0  0  0  0  0  0
    6.9076   -1.3263    0.0000 C   0  0  0  0  0  4  0  0  0  0  0  0
    8.0589   -1.9894    0.0000 C   0  0  0  0  0  4  0  0  0  0  0  0
    8.0589   -3.3249    0.0000 C   0  0  0  0  0  4  0  0  0  0  0  0
    6.9076   -3.9880    0.0000 C   0  0  0  0  0  4  0  0  0  0  0  0
    9.2102   -1.3263    0.0000 N   0  0  0  0  0  3  0  0  0  0  0  0
    6.9076    0.0000    0.0000 Cl  0  0  0  0  0  1  0  0  0  0  0  0
    0.0000   -1.3263    0.0000 N   0  0  0  0  0  3  0  0  0  0  0  0
  1  2  1  0  0  0  0 
  2  3  2  0  0  0  0 
  2  7  1  0  0  0  0 
  3  4  1  0  0  0  0 
  3 17  1  0  0  0  0 
  4  5  2  0  0  0  0 
  5  6  1  0  0  0  0 
  6  7  2  0  0  0  0 
  6  8  1  0  0  0  0 
  8  9  1  0  0  0  0 
  9 10  2  0  0  0  0 
  9 14  1  0  0  0  0 
 10 11  1  0  0  0  0 
 11 12  2  0  0  0  0 
 11 16  1  0  0  0  0 
 12 13  1  0  0  0  0 
 12 15  1  0  0  0  0 
 13 14  2  0  0  0  0 
M  END
> <CDK Fingerprint>
AQAAAAAAAAAgAABAAIJAABABAAAAAABBCAAAAAAEAAIIAADgAAAAAgAAAAACAAAAIAAAACAAAABAAQAEQAAAAQAECAAAAAAAAAAAAAAAICAIAgAAAAAAAAGBAAAAAIAAIIAAAMAgBACAAAACQAAEAAEAFACAAABBAAAAAAACEAA=

> <ActivityOutcome_CPDBAS_Rat>
active

> <TD50_Rat_mmol>
0.0722

$$$$

  CDK     0721101958

 17 18  0  0  0  0  0  0  0  0999 V2000
    0.0000   -3.9880    0.0000 C   0  0  0  0  0  4  0  0  0  0  0  0
    1.1513   -3.3249    0.0000 C   0  0  0  0  0  4  0  0  0  0  0  0
    1.1513   -1.9894    0.0000 C   0  0  0  0  0  4  0  0  0  0  0  0
    2.3026   -1.3263    0.0000 C   0  0  0  0  0  4  0  0  0  0  0  0
    3.4538   -1.9894    0.0000 C   0  0  0  0  0  4  0  0  0  0  0  0
    3.4538   -3.3249    0.0000 C   0  0  0  0  0  4  0  0  0  0  0  0
    2.3026   -3.9880    0.0000 C   0  0  0  0  0  4  0  0  0  0  0  0
    4.6051   -3.9880    0.0000 C   0  0  0  0  0  4  0  0  0  0  0  0
    5.7564   -3.3249    0.0000 C   0  0  0  0  0  4  0  0  0  0  0  0
    5.7564   -1.9894    0.0000 C   0  0  0  0  0  4  0  0  0  0  0  0
    6.9076   -1.3263    0.0000 C   0  0  0  0  0  4  0  0  0  0  0  0
    8.0589   -1.9894    0.0000 C   0  0  0  0  0  4  0  0  0  0  0  0
    8.0589   -3.3249    0.0000 C   0  0  0  0  0  4  0  0  0  0  0  0
    6.9076   -3.9880    0.0000 C   0  0  0  0  0  4  0  0  0  0  0  0
    9.2102   -1.3263    0.0000 N   0  0  0  0  0  3  0  0  0  0  0  0
    6.9076    0.0000    0.0000 C   0  0  0  0  0  4  0  0  0  0  0  0
    0.0000   -1.3263    0.0000 N   0  0  0  0  0  3  0  0  0  0  0  0
  1  2  1  0  0  0  0 
  2  3  2  0  0  0  0 
  2  7  1  0  0  0  0 
  3  4  1  0  0  0  0 
  3 17  1  0  0  0  0 
  4  5  2  0  0  0  0 
  5  6  1  0  0  0  0 
  6  7  2  0  0  0  0 
  6  8  1  0  0  0  0 
  8  9  1  0  0  0  0 
  9 10  2  0  0  0  0 
  9 14  1  0  0  0  0 
 10 11  1  0  0  0  0 
 11 12  2  0  0  0  0 
 11 16  1  0  0  0  0 
 12 13  1  0  0  0  0 
 12 15  1  0  0  0  0 
 13 14  2  0  0  0  0 
M  END
> <CDK Fingerprint>
IgCAAACAQAAQAQAAAAAAQQAAAAAEBAACCAAAYAAAAAIAAAAAAgAAAHAAAAAkAAAAQAEAAEAAAAAABAgAAAAAAAAAAAAAACAACAAAAAAAAAAAgAAAAACAACAAAABAIAAAAAAAAkAABAAgABQAggAAQQAAAAYAAhAA

> <ActivityOutcome_CPDBAS_Rat>
active

> <TD50_Rat_mmol>
0.0326

$$$$

  CDK     0721101958

  3  2  0  0  0  0  0  0  0  0999 V2000
    2.3030   -0.6656    0.0000 Cl  0  0  0  0  0  1  0  0  0  0  0  0
    1.1515    0.0000    0.0000 C   0  0  0  0  0  4  0  0  0  0  0  0
    0.0000   -0.6656    0.0000 Cl  0  0  0  0  0  1  0  0  0  0  0  0
  1  2  1  0  0  0  0 
  2  3  1  0  0  0  0 
M  END
> <CDK Fingerprint>
AMAAAAAAAAAAAAAAAAAAAAAABAAAAAAAAAAAAAABAAAAAAAAAAAAAAAAAAAAAAAAAAAAAAAAAAAAAAAAAAAAAAAAAAAAAAAAAAAAAAAAAAAAAAAAAAAAAAAAAAAAAA==

> <ActivityOutcome_CPDBAS_Rat>
active

> <TD50_Rat_mmol>
8.52

$$$$

  CDK     0721101958

 19 20  0  0  0  0  0  0  0  0999 V2000
    5.7456    0.0000    0.0000 C   0  0  0  0  0  4  0  0  0  0  0  0
    6.8970   -0.6678    0.0000 C   0  0  0  0  0  4  0  0  0  0  0  0
    6.8970   -2.0035    0.0000 C   0  0  0  0  0  4  0  0  0  0  0  0
    8.0599    0.0000    0.0000 C   0  0  0  0  0  4  0  0  0  0  0  0
    8.0599   -2.6598    0.0000 C   0  0  0  0  0  4  0  0  0  0  0  0
    9.2113   -0.6678    0.0000 C   0  0  0  0  0  4  0  0  0  0  0  0
    9.2113   -2.0035    0.0000 C   0  0  0  0  0  4  0  0  0  0  0  0
   10.3628   -2.6598    0.0000 N   0  0  0  0  0  3  0  0  0  0  0  0
   11.5142   -2.0035    0.0000 C   0  0  0  0  0  4  0  0  0  0  0  0
   10.3628   -3.9839    0.0000 C   0  0  0  0  0  4  0  0  0  0  0  0
    4.6172   -0.6678    0.0000 C   0  0  0  0  0  4  0  0  0  0  0  0
    3.4543    0.0000    0.0000 C   0  0  0  0  0  4  0  0  0  0  0  0
    4.6172   -2.0035    0.0000 C   0  0  0  0  0  4  0  0  0  0  0  0
    2.3028   -0.6678    0.0000 C   0  0  0  0  0  4  0  0  0  0  0  0
    3.4543   -2.6598    0.0000 C   0  0  0  0  0  4  0  0  0  0  0  0
    2.3028   -2.0035    0.0000 C   0  0  0  0  0  4  0  0  0  0  0  0
    1.1514   -2.6598    0.0000 N   0  0  0  0  0  3  0  0  0  0  0  0
    1.1514   -3.9839    0.0000 C   0  0  0  0  0  4  0  0  0  0  0  0
    0.0000   -2.0035    0.0000 C   0  0  0  0  0  4  0  0  0  0  0  0
  1  2  1  0  0  0  0 
  1 11  1  0  0  0  0 
  2  3  2  0  0  0  0 
  2  4  1  0  0  0  0 
  3  5  1  0  0  0  0 
  4  6  2  0  0  0  0 
  5  7  2  0  0  0  0 
  6  7  1  0  0  0  0 
  7  8  1  0  0  0  0 
  8  9  1  0  0  0  0 
  8 10  1  0  0  0  0 
 11 12  2  0  0  0  0 
 11 13  1  0  0  0  0 
 12 14  1  0  0  0  0 
 13 15  2  0  0  0  0 
 14 16  2  0  0  0  0 
 15 16  1  0  0  0  0 
 16 17  1  0  0  0  0 
 17 18  1  0  0  0  0 
 17 19  1  0  0  0  0 
M  END
> <CDK Fingerprint>
AQAgAAAAAIBAABABAAAAAABBAAAAAAAEQAIIAABgAAAAAgAAAAACAAAAIAAEACAAAgBAAQAAwAQAAEAECAAAABAAAAAAAAAAIAAIAAAAAAAAAACAAAAAAIAAIAAAAEAgAAAAAAACQAAEAAAAFACAAABBAAAAQAACEAA=

> <ActivityOutcome_CPDBAS_Rat>
active

> <TD50_Rat_mmol>
0.0645

$$$$

  CDK     0721101958

 25 26  0  0  0  0  0  0  0  0999 V2000
    6.9120   -6.6529    0.0000 O   0  0  0  0  0  2  0  0  0  0  0  0
    6.9120   -5.3265    0.0000 C   0  0  0  0  0  4  0  0  0  0  0  0
    5.7617   -4.6633    0.0000 C   0  0  0  0  0  4  0  0  0  0  0  0
    5.7617   -3.3265    0.0000 C   0  0  0  0  0  4  0  0  0  0  0  0
    6.9120   -2.6632    0.0000 C   0  0  0  0  0  4  0  0  0  0  0  0
    8.0623   -3.3265    0.0000 C   0  0  0  0  0  4  0  0  0  0  0  0
    8.0623   -4.6633    0.0000 C   0  0  0  0  0  4  0  0  0  0  0  0
    9.2125   -5.3265    0.0000 C   0  0  0  0  0  4  0  0  0  0  0  0
   10.3628   -5.9897    0.0000 C   0  0  0  0  0  4  0  0  0  0  0  0
    8.5493   -6.4768    0.0000 C   0  0  0  0  0  4  0  0  0  0  0  0
    9.8758   -4.1762    0.0000 C   0  0  0  0  0  4  0  0  0  0  0  0
    6.9120   -1.3368    0.0000 C   0  0  0  0  0  4  0  0  0  0  0  0
    4.6011   -5.3265    0.0000 C   0  0  0  0  0  4  0  0  0  0  0  0
    3.4508   -4.6633    0.0000 C   0  0  0  0  0  4  0  0  0  0  0  0
    2.3005   -5.3265    0.0000 C   0  0  0  0  0  4  0  0  0  0  0  0
    1.1503   -4.6633    0.0000 C   0  0  0  0  0  4  0  0  0  0  0  0
    1.1503   -3.3265    0.0000 C   0  0  0  0  0  4  0  0  0  0  0  0
    2.3005   -2.6632    0.0000 C   0  0  0  0  0  4  0  0  0  0  0  0
    3.4508   -3.3265    0.0000 C   0  0  0  0  0  4  0  0  0  0  0  0
    4.6011   -2.6632    0.0000 O   0  0  0  0  0  2  0  0  0  0  0  0
    2.3005   -1.3368    0.0000 C   0  0  0  0  0  4  0  0  0  0  0  0
    0.9741   -1.3368    0.0000 C   0  0  0  0  0  4  0  0  0  0  0  0
    2.3005    0.0000    0.0000 C   0  0  0  0  0  4  0  0  0  0  0  0
    3.6374   -1.3368    0.0000 C   0  0  0  0  0  4  0  0  0  0  0  0
    0.0000   -5.3265    0.0000 C   0  0  0  0  0  4  0  0  0  0  0  0
  1  2  1  0  0  0  0 
  2  3  2  0  0  0  0 
  2  7  1  0  0  0  0 
  3  4  1  0  0  0  0 
  3 13  1  0  0  0  0 
  4  5  2  0  0  0  0 
  5  6  1  0  0  0  0 
  5 12  1  0  0  0  0 
  6  7  2  0  0  0  0 
  7  8  1  0  0  0  0 
  8  9  1  0  0  0  0 
  8 10  1  0  0  0  0 
  8 11  1  0  0  0  0 
 13 14  1  0  0  0  0 
 14 15  2  0  0  0  0 
 14 19  1  0  0  0  0 
 15 16  1  0  0  0  0 
 16 17  2  0  0  0  0 
 16 25  1  0  0  0  0 
 17 18  1  0  0  0  0 
 18 19  2  0  0  0  0 
 18 21  1  0  0  0  0 
 19 20  1  0  0  0  0 
 21 22  1  0  0  0  0 
 21 23  1  0  0  0  0 
 21 24  1  0  0  0  0 
M  END
> <CDK Fingerprint>
AIACAIgAABABAAAAAAAAAIAAAAQAAABoAAJhAAAAAgAAAADCAAAAMAAAIAQAAABAAQAAQAAgAAAGCAAABAABAAAAAAAAIoAIEAAAAAAAAACAAEAAAIAAIAAAAEAgIAAAAAAGQAAEACABFACCAABBAAAABgAAAAA=

> <ActivityOutcome_CPDBAS_Rat>
inactive

$$$$

  CDK     0721101958

  6  5  0  0  0  0  0  0  0  0999 V2000
    3.9905   -2.3025    0.0000 C   0  0  0  0  0  4  0  0  0  0  0  0
    3.3240   -1.1492    0.0000 C   0  0  0  0  0  4  0  0  0  0  0  0
    1.9952   -1.1492    0.0000 C   0  0  0  0  0  4  0  0  0  0  0  0
    1.3288    0.0000    0.0000 C   0  0  0  0  0  4  0  0  0  0  0  0
    1.3288   -2.3025    0.0000 N   0  0  0  0  0  3  0  0  0  0  0  0
    0.0000   -2.3025    0.0000 O   0  0  0  0  0  2  0  0  0  0  0  0
  1  2  1  0  0  0  0 
  2  3  1  0  0  0  0 
  3  4  1  0  0  0  0 
  3  5  2  0  0  0  0 
  5  6  1  0  0  0  0 
M  END
> <CDK Fingerprint>
CEAAAAAACAAAAAAAAAAAAAAAAAAAAAAAAAAAAAAAYAAAAAAAAAAAAAAAACAgAAAAAAAAAAAAAEAAAAAAAAAAAAABAAAAAAAAAAAAAAABAAAAAAAAAAAAAAAAAAAAAAAAAAAAAAAAAAAQAIAAAAAAAAAAAAAAAAAAAAAA

> <ActivityOutcome_CPDBAS_Rat>
active

> <TD50_Rat_mmol>
0.855

$$$$

  CDK     0721101958

 13 13  0  0  0  0  0  0  0  0999 V2000
    1.9945    0.0000    0.0000 O   0  0  0  0  0  2  0  0  0  0  0  0
    0.6622    0.0000    0.0000 C   0  0  0  0  0  4  0  0  0  0  0  0
    2.6567   -1.1488    0.0000 C   0  0  0  0  0  4  0  0  0  0  0  0
    3.9890   -1.1488    0.0000 C   0  0  0  0  0  4  0  0  0  0  0  0
    4.6512   -2.3057    0.0000 C   0  0  0  0  0  4  0  0  0  0  0  0
    5.9836   -2.3057    0.0000 C   0  0  0  0  0  4  0  0  0  0  0  0
    6.6457   -3.4545    0.0000 C   0  0  0  0  0  4  0  0  0  0  0  0
    7.9781   -3.4545    0.0000 C   0  0  0  0  0  4  0  0  0  0  0  0
    3.9890   -3.4545    0.0000 C   0  0  0  0  0  4  0  0  0  0  0  0
    2.6567   -3.4545    0.0000 C   0  0  0  0  0  4  0  0  0  0  0  0
    1.9945   -2.3057    0.0000 C   0  0  0  0  0  4  0  0  0  0  0  0
    0.6622   -2.3057    0.0000 O   0  0  0  0  0  2  0  0  0  0  0  0
    0.0000   -3.4545    0.0000 C   0  0  0  0  0  4  0  0  0  0  0  0
  1  2  1  0  0  0  0 
  1  3  1  0  0  0  0 
  3  4  2  0  0  0  0 
  3 11  1  0  0  0  0 
  4  5  1  0  0  0  0 
  5  6  1  0  0  0  0 
  5  9  2  0  0  0  0 
  6  7  1  0  0  0  0 
  7  8  2  0  0  0  0 
  9 10  1  0  0  0  0 
 10 11  2  0  0  0  0 
 11 12  1  0  0  0  0 
 12 13  1  0  0  0  0 
M  END
> <CDK Fingerprint>
QAIAAAAAAAAIAAIAAAAAAAAAACgFAACAAAIAAAAACAgAAmEAAACAgAAAAAAAAAAgAAQgQAAQAEAAACBAAAAAAAYYAAAAAAIAAAIEAAAAgAAQAAAAAAAAAIAAAAAAgAAgAAIAQCAgIAIQAAJECAQCAgAUAIAAIAAAAAAAICAAAA==

> <ActivityOutcome_CPDBAS_Rat>
active

> <TD50_Rat_mmol>
0.111

$$$$

  CDK     0721101958

  5  4  0  0  0  0  0  0  0  0999 V2000
    1.1511    0.0000    0.0000 N   0  0  0  0  0  3  0  0  0  0  0  0
    1.1511   -1.3308    0.0000 C   0  0  0  0  0  4  0  0  0  0  0  0
    0.0000   -1.9945    0.0000 N   0  0  0  0  0  3  0  0  0  0  0  0
    2.3056   -1.9945    0.0000 N   0  0  0  0  0  3  0  0  0  0  0  0
    3.4567   -1.3308    0.0000 C   0  0  0  0  0  4  0  0  0  0  0  0
  1  2  2  0  0  0  0 
  2  3  1  0  0  0  0 
  2  4  1  0  0  0  0 
  4  5  1  0  0  0  0 
M  END
> <CDK Fingerprint>
QAAgEABAAAAAAAAAAAAAAAAAAAAAAAAAAAAAAABgAAAAAAAAAAAAAAAAAAAAAAAAAAAAAAAAgAAAAAAAAAAAAAAAAAAAAAAAAAAAAAQAAAAAAAAAAAAAAAAAAAAAAAAAAAAAAAAAAAAAAAAAAAAAAAAAAAAAAAACAAA=

> <ActivityOutcome_CPDBAS_Rat>
inactive

$$$$

  CDK     0721101958

 12 13  0  0  0  0  0  0  0  0999 V2000
    2.6597   -3.4409    0.0000 C   0  0  0  0  0  4  0  0  0  0  0  0
    1.9933   -2.2920    0.0000 C   0  0  0  0  0  4  0  0  0  0  0  0
    0.6664   -2.2920    0.0000 C   0  0  0  0  0  4  0  0  0  0  0  0
    0.0000   -3.4409    0.0000 N   0  0  0  0  0  3  0  0  0  0  0  0
    0.6664   -4.5956    0.0000 C   0  0  0  0  0  4  0  0  0  0  0  0
    1.9933   -4.5956    0.0000 N   0  0  0  0  0  3  0  0  0  0  0  0
    0.0000   -5.7445    0.0000 N   0  0  0  0  0  3  0  0  0  0  0  0
    0.0000   -1.1374    0.0000 O   0  0  0  0  0  2  0  0  0  0  0  0
    2.8837   -1.2982    0.0000 N   0  0  0  0  0  3  0  0  0  0  0  0
    2.6080    0.0000    0.0000 C   0  0  0  0  0  4  0  0  0  0  0  0
    4.1015   -1.8440    0.0000 C   0  0  0  0  0  4  0  0  0  0  0  0
    3.9579   -3.1652    0.0000 N   0  0  0  0  0  3  0  0  0  0  0  0
  1  2  2  0  0  0  0 
  1  6  1  0  0  0  0 
  1 12  1  0  0  0  0 
  2  3  1  0  0  0  0 
  2  9  1  0  0  0  0 
  3  4  1  0  0  0  0 
  3  8  2  0  0  0  0 
  4  5  1  0  0  0  0 
  5  6  2  0  0  0  0 
  5  7  1  0  0  0  0 
  9 10  1  0  0  0  0 
  9 11  1  0  0  0  0 
 11 12  2  0  0  0  0 
M  END
> <CDK Fingerprint>
IBGCIIhCBSIUwGQAAUAEAEBgAAACAAAggAAAEEQgNFAACOAAQBSQBkSAIAgEYGFgAAyGQgCAQEABAACCAAAAkZEDgQYIQMAAUixgEAEAgIBkFIBGUQAMIARAQkAAoAQAAEAwDCDTlQAAAEAAIEGAEAAEIABRAUAAAhIEQAoSAg==

> <ActivityOutcome_CPDBAS_Rat>
inactive

$$$$

  CDK     0721101958

  9  9  0  0  0  0  0  0  0  0999 V2000
    0.0000   -2.6589    0.0000 C   0  0  0  0  0  4  0  0  0  0  0  0
    1.1520   -1.9953    0.0000 C   0  0  0  0  0  4  0  0  0  0  0  0
    1.1520   -0.6636    0.0000 C   0  0  0  0  0  4  0  0  0  0  0  0
    2.3041    0.0000    0.0000 C   0  0  0  0  0  4  0  0  0  0  0  0
    3.4561   -0.6636    0.0000 C   0  0  0  0  0  4  0  0  0  0  0  0
    3.4561   -1.9953    0.0000 C   0  0  0  0  0  4  0  0  0  0  0  0
    2.3041   -2.6589    0.0000 C   0  0  0  0  0  4  0  0  0  0  0  0
    4.6082   -2.6589    0.0000 O   0  0  0  0  0  2  0  0  0  0  0  0
    0.0000    0.0000    0.0000 O   0  0  0  0  0  2  0  0  0  0  0  0
  1  2  1  0  0  0  0 
  2  3  2  0  0  0  0 
  2  7  1  0  0  0  0 
  3  4  1  0  0  0  0 
  3  9  1  0  0  0  0 
  4  5  2  0  0  0  0 
  5  6  1  0  0  0  0 
  6  7  2  0  0  0  0 
  6  8  1  0  0  0  0 
M  END
> <CDK Fingerprint>
AgAAAAAAAAAAAAAAAAAAAAAAAAAAAAACYQAAAICAAAAAAAAAACAAACAAAAAAQAAAAAAAAAAABgAAAAAAAQAAAAAAAACAAAEAAAAAAAAAgAAAAACAACAAAABAICAAAAAAAkAAAAAAAAAAgAAAAAAAAAAAAAAA

> <ActivityOutcome_CPDBAS_Rat>
inactive

$$$$

  CDK     0721101958

  6  6  0  0  0  0  0  0  0  0999 V2000
    0.0000   -1.0738    0.0000 C   0  0  0  0  0  4  0  0  0  0  0  0
    1.3304   -1.0738    0.0000 C   0  0  0  0  0  4  0  0  0  0  0  0
    2.1104    0.0000    0.0000 N   0  0  0  0  0  3  0  0  0  0  0  0
    3.3767   -0.4086    0.0000 C   0  0  0  0  0  4  0  0  0  0  0  0
    3.3767   -1.7390    0.0000 C   0  0  0  0  0  4  0  0  0  0  0  0
    2.1104   -2.1509    0.0000 N   0  0  0  0  0  3  0  0  0  0  0  0
  1  2  1  0  0  0  0 
  2  3  2  0  0  0  0 
  2  6  1  0  0  0  0 
  3  4  1  0  0  0  0 
  4  5  2  0  0  0  0 
  5  6  1  0  0  0  0 
M  END
> <CDK Fingerprint>
AgCAAgEAAAAgAAAAAAAAAAAAAAAAAAAAAAAAAAAAAABgAAAAAIAAAAAAAAAAIAAAAAAAAABAAAAAAAAAAAEAAAAEAAAAAAAAAAAAAAAAAAAAAAAAACAAAAAAAIAAAAAAEAAAAAAAAAAAAAABAAAAAAAAAAAAAAAAAAAAAAI=

> <ActivityOutcome_CPDBAS_Rat>
active

> <TD50_Rat_mmol>
10.6

$$$$

  CDK     0721101958

  5  4  0  0  0  0  0  0  0  0999 V2000
    0.0000   -1.3308    0.0000 C   0  0  0  0  0  4  0  0  0  0  0  0
    1.1511   -1.9945    0.0000 N   0  0  0  0  0  3  0  0  0  0  0  0
    2.3056   -1.3308    0.0000 N   0  0  0  0  0  4  0  0  0  0  0  0
    2.3056    0.0000    0.0000 O   0  0  0  0  0  2  0  0  0  0  0  0
    3.4567   -1.9945    0.0000 O   0  0  0  0  0  1  0  0  0  0  0  0
  1  2  1  0  0  0  0 
  2  3  1  0  0  0  0 
  3  4  2  0  0  0  0 
  3  5  1  0  0  0  0 
M  CHG  1   3   1
M  CHG  1   5  -1
M  END
> <CDK Fingerprint>
CAAAAAAAAAAAAAAAAAAAAAAAAAAEAAAAYAAAAQAAAAAAAAAAAAAAAQAEAAAAAAAAAAAAAAAAAAAAAAAAAAAAAAAAAAAAAAAAAAAAAAAAAAAAAAAAAAAABCAAAAAAAAAAAAAAAAAAAAAAAAAAAAAAAAAAAwAA

> <ActivityOutcome_CPDBAS_Rat>
active

> <TD50_Rat_mmol>
0.229

$$$$

  CDK     0721101958

 15 15  0  0  0  0  0  0  0  0999 V2000
    3.4524   -2.6644    0.0000 C   0  0  0  0  0  4  0  0  0  0  0  0
    4.6032   -2.0009    0.0000 C   0  0  0  0  0  4  0  0  0  0  0  0
    5.7643   -2.6644    0.0000 C   0  0  0  0  0  4  0  0  0  0  0  0
    6.9151   -2.0009    0.0000 C   0  0  0  0  0  4  0  0  0  0  0  0
    8.0659   -2.6644    0.0000 N   0  0  0  0  0  3  0  0  0  0  0  0
    9.2167   -2.0009    0.0000 N   0  0  0  0  0  3  0  0  0  0  0  0
   10.3675   -2.6644    0.0000 O   0  0  0  0  0  2  0  0  0  0  0  0
    8.0659   -3.9915    0.0000 C   0  0  0  0  0  4  0  0  0  0  0  0
    3.4524   -3.9915    0.0000 O   0  0  0  0  0  2  0  0  0  0  0  0
    2.3016   -2.0009    0.0000 C   0  0  0  0  0  4  0  0  0  0  0  0
    1.1508   -2.6644    0.0000 C   0  0  0  0  0  4  0  0  0  0  0  0
    0.0000   -2.0009    0.0000 N   0  0  0  0  0  3  0  0  0  0  0  0
    0.0000   -0.6635    0.0000 C   0  0  0  0  0  4  0  0  0  0  0  0
    1.1508    0.0000    0.0000 C   0  0  0  0  0  4  0  0  0  0  0  0
    2.3016   -0.6635    0.0000 C   0  0  0  0  0  4  0  0  0  0  0  0
  1  2  1  0  0  0  0 
  1  9  1  0  0  0  0 
  1 10  1  0  0  0  0 
  2  3  1  0  0  0  0 
  3  4  1  0  0  0  0 
  4  5  1  0  0  0  0 
  5  6  1  0  0  0  0 
  5  8  1  0  0  0  0 
  6  7  2  0  0  0  0 
 10 11  1  0  0  0  0 
 10 15  2  0  0  0  0 
 11 12  2  0  0  0  0 
 12 13  1  0  0  0  0 
 13 14  2  0  0  0  0 
 14 15  1  0  0  0  0 
M  END
> <CDK Fingerprint>
CiCQAgACAIAeAAGAAAEAAAAAEACAAAAAIAAACFQBAQFgAAAQAASAhQAAAAQYIgALAABAACBAAAAAwAAAAAEIAAAAAABAAAEAAEIAAIAAgAAEIABAAACgMAAAAIAAIEDEIgA5BAgAAAIgQBAEAIqQHKCAABAEAAAAAAADoKA=

> <ActivityOutcome_CPDBAS_Rat>
active

> <TD50_Rat_mmol>
0.000492

$$$$

  CDK     0721101958

 15 15  0  0  0  0  0  0  0  0999 V2000
    3.4524   -3.9915    0.0000 O   0  0  0  0  0  2  0  0  0  0  0  0
    3.4524   -2.6644    0.0000 C   0  0  0  0  0  4  0  0  0  0  0  0
    2.3016   -2.0009    0.0000 C   0  0  0  0  0  4  0  0  0  0  0  0
    1.1508   -2.6644    0.0000 C   0  0  0  0  0  4  0  0  0  0  0  0
    0.0000   -2.0009    0.0000 C   0  0  0  0  0  4  0  0  0  0  0  0
    0.0000   -0.6635    0.0000 C   0  0  0  0  0  4  0  0  0  0  0  0
    1.1508    0.0000    0.0000 N   0  0  0  0  0  3  0  0  0  0  0  0
    2.3016   -0.6635    0.0000 C   0  0  0  0  0  4  0  0  0  0  0  0
    4.6032   -2.0009    0.0000 C   0  0  0  0  0  4  0  0  0  0  0  0
    5.7643   -2.6644    0.0000 C   0  0  0  0  0  4  0  0  0  0  0  0
    6.9151   -2.0009    0.0000 C   0  0  0  0  0  4  0  0  0  0  0  0
    8.0659   -2.6644    0.0000 N   0  0  0  0  0  3  0  0  0  0  0  0
    9.2167   -2.0009    0.0000 N   0  0  0  0  0  3  0  0  0  0  0  0
   10.3675   -2.6644    0.0000 O   0  0  0  0  0  2  0  0  0  0  0  0
    8.0659   -3.9915    0.0000 C   0  0  0  0  0  4  0  0  0  0  0  0
  1  2  2  0  0  0  0 
  2  3  1  0  0  0  0 
  2  9  1  0  0  0  0 
  3  4  2  0  0  0  0 
  3  8  1  0  0  0  0 
  4  5  1  0  0  0  0 
  5  6  2  0  0  0  0 
  6  7  1  0  0  0  0 
  7  8  2  0  0  0  0 
  9 10  1  0  0  0  0 
 10 11  1  0  0  0  0 
 11 12  1  0  0  0  0 
 12 13  1  0  0  0  0 
 12 15  1  0  0  0  0 
 13 14  2  0  0  0  0 
M  END
> <CDK Fingerprint>
CiCQAgACAYAcAAGAAAEAAAAAEACAAAAAIAAACFQFAQFoAEAQBACAAQAAAAQYIgAJAABBAABAAAAgwAAAAAEIAAAAAABAAAEAAEIAAIAEgAAAIABAAAC0MAAAAIAAIEDEIgAxAAgAAAIgQBAEAQgQHCCAEABEAAAAAACDoKE=

> <ActivityOutcome_CPDBAS_Rat>
active

> <TD50_Rat_mmol>
0.000482

$$$$

  CDK     0721101958

  6  5  0  0  0  0  0  0  0  0999 V2000
    0.0000   -1.1544    0.0000 N   0  0  0  0  0  3  0  0  0  0  0  0
    1.3312   -1.1544    0.0000 C   0  0  0  0  0  4  0  0  0  0  0  0
    2.6578   -1.1544    0.0000 N   0  0  0  0  0  3  0  0  0  0  0  0
    3.3234   -2.3040    0.0000 C   0  0  0  0  0  4  0  0  0  0  0  0
    3.3234    0.0000    0.0000 N   0  0  0  0  0  3  0  0  0  0  0  0
    4.6546    0.0000    0.0000 O   0  0  0  0  0  2  0  0  0  0  0  0
  1  2  3  0  0  0  0 
  2  3  1  0  0  0  0 
  3  4  1  0  0  0  0 
  3  5  1  0  0  0  0 
  5  6  2  0  0  0  0 
M  END
> <CDK Fingerprint>
BAAAAAAAAAAAAAAAAAAAAAAgAAAEAAAAYAAAAAAAAAAAAAAAAAAAAQAAAAAAAAAAAIAAAAAAAAAAAAAAAAAAAAAAAAAAAAAAAAAAAAAAAAAAAAAAAAAABCAAAAAAAAAAAAAAAAAAAAAAAAAAIgAAAAAAAwAA

> <ActivityOutcome_CPDBAS_Rat>
active

> <TD50_Rat_mmol>
0.00564

$$$$

  CDK     0721101958

  7  6  0  0  0  0  0  0  0  0999 V2000
    0.0000   -3.4555    0.0000 O   0  0  0  0  0  2  0  0  0  0  0  0
    1.3315   -3.4555    0.0000 C   0  0  0  0  0  4  0  0  0  0  0  0
    1.9950   -2.3037    0.0000 N   0  0  0  0  0  3  0  0  0  0  0  0
    1.3315   -1.1518    0.0000 C   0  0  0  0  0  4  0  0  0  0  0  0
    1.9950    0.0000    0.0000 O   0  0  0  0  0  2  0  0  0  0  0  0
    1.9950   -4.6073    0.0000 C   0  0  0  0  0  4  0  0  0  0  0  0
    3.3265   -4.6073    0.0000 C   0  0  0  0  0  4  0  0  0  0  0  0
  1  2  2  0  0  0  0 
  2  3  1  0  0  0  0 
  2  6  1  0  0  0  0 
  3  4  1  0  0  0  0 
  4  5  1  0  0  0  0 
  6  7  2  0  0  0  0 
M  END
> <CDK Fingerprint>
QAAAAAAAAAIAAAIAgAAAAAAAAAAAAAAAAAAAAAAAAAIAAGAAAAAAAAAAAAAAAEAgAAAAAAAQAAAAAACAAAAAgAAAAAAAAAAAAAAAAAAAgQAAAAAAAAAAQAABAAAAAAAAAEAAAAEAAAAAAAAAAAAAAAAAAABwAAAAAAAAAAIAAA==

> <ActivityOutcome_CPDBAS_Rat>
inactive

$$$$

  CDK     0721101958

 11 12  0  0  0  0  0  0  0  0999 V2000
    5.7589   -2.6606    0.0000 C   0  0  0  0  0  4  0  0  0  0  0  0
    4.6071   -1.9983    0.0000 C   0  0  0  0  0  4  0  0  0  0  0  0
    3.4554   -2.6606    0.0000 C   0  0  0  0  0  4  0  0  0  0  0  0
    2.3036   -1.9983    0.0000 C   0  0  0  0  0  4  0  0  0  0  0  0
    1.1518   -2.6606    0.0000 C   0  0  0  0  0  4  0  0  0  0  0  0
    0.0000   -1.9983    0.0000 C   0  0  0  0  0  4  0  0  0  0  0  0
    0.0000   -0.6680    0.0000 C   0  0  0  0  0  4  0  0  0  0  0  0
    1.1518    0.0000    0.0000 N   0  0  0  0  0  3  0  0  0  0  0  0
    2.3036   -0.6680    0.0000 C   0  0  0  0  0  4  0  0  0  0  0  0
    3.4554    0.0000    0.0000 C   0  0  0  0  0  4  0  0  0  0  0  0
    4.6071   -0.6680    0.0000 C   0  0  0  0  0  4  0  0  0  0  0  0
  1  2  1  0  0  0  0 
  2  3  2  0  0  0  0 
  2 11  1  0  0  0  0 
  3  4  1  0  0  0  0 
  4  5  2  0  0  0  0 
  4  9  1  0  0  0  0 
  5  6  1  0  0  0  0 
  6  7  2  0  0  0  0 
  7  8  1  0  0  0  0 
  8  9  2  0  0  0  0 
  9 10  1  0  0  0  0 
 10 11  2  0  0  0  0 
M  END
> <CDK Fingerprint>
AQACAZACAgCAAAwCAAAAAAAAAAAAAAAAAAAAAAAIAAAAAGAAAEAAAAAAAAAAAAggAAAAAAAAAEAAAAAAkAgAAQQAAAAAgAAAAAAAAAAAAACAAACAAAAAAIAgAAAAgAAgQAABQCAIgQAAAAJRAAAAAAACIIAAAAJAAAAAAACgAA==

> <ActivityOutcome_CPDBAS_Rat>
inactive

$$$$

  CDK     0721101958

 11 12  0  0  0  0  0  0  0  0999 V2000
    3.4555    0.0000    0.0000 C   0  0  0  0  0  4  0  0  0  0  0  0
    3.4555   -1.3315    0.0000 C   0  0  0  0  0  4  0  0  0  0  0  0
    4.6073   -1.9950    0.0000 C   0  0  0  0  0  4  0  0  0  0  0  0
    4.6073   -3.3265    0.0000 C   0  0  0  0  0  4  0  0  0  0  0  0
    3.4555   -3.9899    0.0000 C   0  0  0  0  0  4  0  0  0  0  0  0
    2.3037   -3.3265    0.0000 C   0  0  0  0  0  4  0  0  0  0  0  0
    1.1518   -3.9899    0.0000 C   0  0  0  0  0  4  0  0  0  0  0  0
    0.0000   -3.3265    0.0000 C   0  0  0  0  0  4  0  0  0  0  0  0
    0.0000   -1.9950    0.0000 C   0  0  0  0  0  4  0  0  0  0  0  0
    1.1518   -1.3315    0.0000 N   0  0  0  0  0  3  0  0  0  0  0  0
    2.3037   -1.9950    0.0000 C   0  0  0  0  0  4  0  0  0  0  0  0
  1  2  1  0  0  0  0 
  2  3  2  0  0  0  0 
  2 11  1  0  0  0  0 
  3  4  1  0  0  0  0 
  4  5  2  0  0  0  0 
  5  6  1  0  0  0  0 
  6  7  2  0  0  0  0 
  6 11  1  0  0  0  0 
  7  8  1  0  0  0  0 
  8  9  2  0  0  0  0 
  9 10  1  0  0  0  0 
 10 11  2  0  0  0  0 
M  END
> <CDK Fingerprint>
AQACAZACAACAgAwCAAAAAAAAAAAAAAAAAAAAAAAIAAAAAGAAAEAAAAAAAAAAAAggAAgAAAAAAEAAAAAAkAgAAQQAAAAAgAAACQAAgAAAAACAAACAAAAAAIAgAAAAgAAgQIABQCAIgQAAAAJBAAAAAAACIIAAAAJAAAAAAAAAAA==

> <ActivityOutcome_CPDBAS_Rat>
inactive

$$$$

  CDK     0721101958

 23 26  0  0  0  0  0  0  0  0999 V2000
    9.9631   -5.5395    0.0000 C   0  0  0  0  0  4  0  0  0  0  0  0
    8.6778   -5.1310    0.0000 N   0  0  0  0  0  3  0  0  0  0  0  0
    7.7313   -6.0775    0.0000 C   0  0  0  0  0  4  0  0  0  0  0  0
    6.4461   -5.6590    0.0000 C   0  0  0  0  0  4  0  0  0  0  0  0
    6.1671   -4.3837    0.0000 N   0  0  0  0  0  3  0  0  0  0  0  0
    7.1136   -3.4472    0.0000 C   0  0  0  0  0  4  0  0  0  0  0  0
    8.3989   -3.8557    0.0000 C   0  0  0  0  0  4  0  0  0  0  0  0
    4.9018   -3.9952    0.0000 C   0  0  0  0  0  4  0  0  0  0  0  0
    3.9553   -4.9317    0.0000 N   0  0  0  0  0  3  0  0  0  0  0  0
    2.6502   -4.8520    0.0000 C   0  0  0  0  0  4  0  0  0  0  0  0
    2.0723   -6.0476    0.0000 C   0  0  0  0  0  4  0  0  0  0  0  0
    0.7472   -6.1472    0.0000 C   0  0  0  0  0  4  0  0  0  0  0  0
    0.0000   -5.0513    0.0000 C   0  0  0  0  0  4  0  0  0  0  0  0
    0.5779   -3.8557    0.0000 C   0  0  0  0  0  4  0  0  0  0  0  0
    1.9029   -3.7561    0.0000 C   0  0  0  0  0  4  0  0  0  0  0  0
    2.2915   -2.4808    0.0000 S   0  0  0  0  0  2  0  0  0  0  0  0
    3.5369   -1.9926    0.0000 C   0  0  0  0  0  4  0  0  0  0  0  0
    3.5369   -0.6675    0.0000 C   0  0  0  0  0  4  0  0  0  0  0  0
    4.6826    0.0000    0.0000 C   0  0  0  0  0  4  0  0  0  0  0  0
    5.8384   -0.6675    0.0000 C   0  0  0  0  0  4  0  0  0  0  0  0
    6.9841    0.0000    0.0000 C   0  0  0  0  0  4  0  0  0  0  0  0
    5.8384   -1.9926    0.0000 C   0  0  0  0  0  4  0  0  0  0  0  0
    4.6826   -2.6601    0.0000 C   0  0  0  0  0  4  0  0  0  0  0  0
  1  2  1  0  0  0  0 
  2  3  1  0  0  0  0 
  2  7  1  0  0  0  0 
  3  4  1  0  0  0  0 
  4  5  1  0  0  0  0 
  5  6  1  0  0  0  0 
  5  8  1  0  0  0  0 
  6  7  1  0  0  0  0 
  8  9  2  0  0  0  0 
  8 23  1  0  0  0  0 
  9 10  1  0  0  0  0 
 10 11  2  0  0  0  0 
 10 15  1  0  0  0  0 
 11 12  1  0  0  0  0 
 12 13  2  0  0  0  0 
 13 14  1  0  0  0  0 
 14 15  2  0  0  0  0 
 15 16  1  0  0  0  0 
 16 17  1  0  0  0  0 
 17 18  1  0  0  0  0 
 17 23  2  0  0  0  0 
 18 19  2  0  0  0  0 
 19 20  1  0  0  0  0 
 20 21  1  0  0  0  0 
 20 22  2  0  0  0  0 
 22 23  1  0  0  0  0 
M  END
> <CDK Fingerprint>
FAUIAEBAYxDEAACZCMAQtAAAIDgCSHIQEBAIfAYmAFABYoARZN6AQAAQqAsAgXKIAFUAEIAIUACAEIBAkCIAjREAAAAAS4AAQACihQGgEKglBIIAgEShgABxAACpSSAAEADCO0WAIIAgEsAQEQDA4IIkgkKMBAOoAEQAg1Ao

> <ActivityOutcome_CPDBAS_Rat>
inactive

$$$$

  CDK     0721101958

 12 12  0  0  0  0  0  0  0  0999 V2000
    2.0462   -2.3385    0.0000 N   0  0  0  0  0  3  0  0  0  0  0  0
    1.2648   -3.4178    0.0000 C   0  0  0  0  0  4  0  0  0  0  0  0
    0.0000   -3.0075    0.0000 C   0  0  0  0  0  4  0  0  0  0  0  0
    0.0000   -1.6752    0.0000 N   0  0  0  0  0  3  0  0  0  0  0  0
    1.2648   -1.2648    0.0000 C   0  0  0  0  0  4  0  0  0  0  0  0
    1.6752    0.0000    0.0000 C   0  0  0  0  0  4  0  0  0  0  0  0
    1.6752   -4.6826    0.0000 N   0  0  0  0  0  4  0  0  0  0  0  0
    2.9625   -5.0256    0.0000 O   0  0  0  0  0  2  0  0  0  0  0  0
    0.7364   -5.6214    0.0000 O   0  0  0  0  0  1  0  0  0  0  0  0
    3.3785   -2.3385    0.0000 C   0  0  0  0  0  4  0  0  0  0  0  0
    4.0418   -3.4909    0.0000 C   0  0  0  0  0  4  0  0  0  0  0  0
    5.3685   -3.4909    0.0000 O   0  0  0  0  0  2  0  0  0  0  0  0
  1  2  1  0  0  0  0 
  1  5  1  0  0  0  0 
  1 10  1  0  0  0  0 
  2  3  2  0  0  0  0 
  2  7  1  0  0  0  0 
  3  4  1  0  0  0  0 
  4  5  2  0  0  0  0 
  5  6  1  0  0  0  0 
  7  8  2  0  0  0  0 
  7  9  1  0  0  0  0 
 10 11  1  0  0  0  0 
 11 12  1  0  0  0  0 
M  CHG  1   7   1
M  CHG  1   9  -1
M  END
> <CDK Fingerprint>
AnCIIiUCAAAqABEQACAHIAAAAFAAABACQAAEAAQKAABgAAAAAIIBAACAAEEIIAAAgAIAAABAAAAAIAAAEAEAAACEAAAAAEAgAQAgIAEAYBAEABEAQGAEkAJACICEAAAEEAwCARAEACKDAAABIQAAAAAAAQAAAAAAAABCIAI=

> <ActivityOutcome_CPDBAS_Rat>
active

> <TD50_Rat_mmol>
3.17

$$$$

  CDK     0721101958

 16 16  0  0  0  0  0  0  0  0999 V2000
    1.1532   -3.9920    0.0000 C   0  0  0  0  0  4  0  0  0  0  0  0
    2.3065   -3.3307    0.0000 C   0  0  0  0  0  4  0  0  0  0  0  0
    2.3065   -2.0000    0.0000 C   0  0  0  0  0  4  0  0  0  0  0  0
    3.4597   -1.3307    0.0000 C   0  0  0  0  0  4  0  0  0  0  0  0
    4.6049   -2.0000    0.0000 C   0  0  0  0  0  4  0  0  0  0  0  0
    4.6049   -3.3307    0.0000 C   0  0  0  0  0  4  0  0  0  0  0  0
    3.4597   -3.9920    0.0000 C   0  0  0  0  0  4  0  0  0  0  0  0
    5.7581   -3.9920    0.0000 O   0  0  0  0  0  2  0  0  0  0  0  0
    6.9114   -3.3307    0.0000 C   0  0  0  0  0  4  0  0  0  0  0  0
    6.9114   -2.0000    0.0000 O   0  0  0  0  0  2  0  0  0  0  0  0
    8.0646   -3.9920    0.0000 N   0  0  0  0  0  3  0  0  0  0  0  0
    8.0646   -5.3226    0.0000 C   0  0  0  0  0  4  0  0  0  0  0  0
    3.4597    0.0000    0.0000 C   0  0  0  0  0  4  0  0  0  0  0  0
    1.1532   -1.3307    0.0000 N   0  0  0  0  0  3  0  0  0  0  0  0
    0.0000   -2.0000    0.0000 C   0  0  0  0  0  4  0  0  0  0  0  0
    1.1532    0.0000    0.0000 C   0  0  0  0  0  4  0  0  0  0  0  0
  1  2  1  0  0  0  0 
  2  3  2  0  0  0  0 
  2  7  1  0  0  0  0 
  3  4  1  0  0  0  0 
  3 14  1  0  0  0  0 
  4  5  2  0  0  0  0 
  4 13  1  0  0  0  0 
  5  6  1  0  0  0  0 
  6  7  2  0  0  0  0 
  6  8  1  0  0  0  0 
  8  9  1  0  0  0  0 
  9 10  2  0  0  0  0 
  9 11  1  0  0  0  0 
 11 12  1  0  0  0  0 
 14 15  1  0  0  0  0 
 14 16  1  0  0  0  0 
M  END
> <CDK Fingerprint>
AKAAAAAAAAAAogiAAgAACAAAAAAAAAAAQIAAEAiAFEACAAACaRgABJCAAAAAAAAAAHAABCIAAgIAQAAAAMAEAADABhIwAACAAAAAAgQAAACAAAEAAAAAEAJAgAGAAgCAACAARABAJCAgAABAAkEAAAAAAAAAgEAAAQAAAAQAIhAA

> <ActivityOutcome_CPDBAS_Rat>
inactive

$$$$

  CDK     0721101958

 20 21  0  0  0  0  0  0  0  0999 V2000
    5.7577    0.0000    0.0000 O   0  0  0  0  0  2  0  0  0  0  0  0
    5.7577   -1.3358    0.0000 C   0  0  0  0  0  4  0  0  0  0  0  0
    6.9092   -1.9922    0.0000 C   0  0  0  0  0  4  0  0  0  0  0  0
    8.0608   -1.3358    0.0000 C   0  0  0  0  0  4  0  0  0  0  0  0
    9.2123   -1.9922    0.0000 C   0  0  0  0  0  4  0  0  0  0  0  0
    9.2123   -3.3280    0.0000 C   0  0  0  0  0  4  0  0  0  0  0  0
    8.0608   -3.9958    0.0000 C   0  0  0  0  0  4  0  0  0  0  0  0
    6.9092   -3.3280    0.0000 C   0  0  0  0  0  4  0  0  0  0  0  0
   10.3639   -3.9958    0.0000 N   0  0  0  0  0  3  0  0  0  0  0  0
   10.3639   -5.3201    0.0000 C   0  0  0  0  0  4  0  0  0  0  0  0
   11.5154   -3.3280    0.0000 C   0  0  0  0  0  4  0  0  0  0  0  0
    4.6062   -1.9922    0.0000 C   0  0  0  0  0  4  0  0  0  0  0  0
    4.6062   -3.3280    0.0000 C   0  0  0  0  0  4  0  0  0  0  0  0
    3.4546   -3.9958    0.0000 C   0  0  0  0  0  4  0  0  0  0  0  0
    2.3031   -3.3280    0.0000 C   0  0  0  0  0  4  0  0  0  0  0  0
    2.3031   -1.9922    0.0000 C   0  0  0  0  0  4  0  0  0  0  0  0
    3.4546   -1.3358    0.0000 C   0  0  0  0  0  4  0  0  0  0  0  0
    1.1515   -3.9958    0.0000 N   0  0  0  0  0  3  0  0  0  0  0  0
    1.1515   -5.3201    0.0000 C   0  0  0  0  0  4  0  0  0  0  0  0
    0.0000   -3.3280    0.0000 C   0  0  0  0  0  4  0  0  0  0  0  0
  1  2  2  0  0  0  0 
  2  3  1  0  0  0  0 
  2 12  1  0  0  0  0 
  3  4  2  0  0  0  0 
  3  8  1  0  0  0  0 
  4  5  1  0  0  0  0 
  5  6  2  0  0  0  0 
  6  7  1  0  0  0  0 
  6  9  1  0  0  0  0 
  7  8  2  0  0  0  0 
  9 10  1  0  0  0  0 
  9 11  1  0  0  0  0 
 12 13  2  0  0  0  0 
 12 17  1  0  0  0  0 
 13 14  1  0  0  0  0 
 14 15  2  0  0  0  0 
 15 16  1  0  0  0  0 
 15 18  1  0  0  0  0 
 16 17  2  0  0  0  0 
 18 19  1  0  0  0  0 
 18 20  1  0  0  0  0 
M  END
> <CDK Fingerprint>
AQAgAIAAAIBCABABAAAAAABBAAAAAAAEQAIIAABoAAAABgAAAAACAAAAIAQEACAAAgBAAQAAwAQAAEAECAAAABAAAAAAAAAAIAAIAAAAAAAAAACAAAAAAIAAIABAAEAgAAAAAAACQAAEAAAAFACAEAhBAAAAQAACEAA=

> <ActivityOutcome_CPDBAS_Rat>
active

> <TD50_Rat_mmol>
0.021

$$$$

  CDK     0721101958

 22 26  0  0  0  0  0  0  0  0999 V2000
    2.0888   -1.6738    0.0000 C   0  0  0  0  0  4  0  0  0  0  0  0
    3.6129   -3.1434    0.0000 C   0  0  0  0  0  4  0  0  0  0  0  0
    3.2727   -2.7488    0.0000 C   0  0  0  0  0  4  0  0  0  0  0  0
    4.8171   -4.2116    0.0000 C   0  0  0  0  0  4  0  0  0  0  0  0
    2.0888   -3.1434    0.0000 C   0  0  0  0  0  4  0  0  0  0  0  0
    3.2727   -4.2116    0.0000 C   0  0  0  0  0  4  0  0  0  0  0  0
    3.6129   -1.6738    0.0000 C   0  0  0  0  0  4  0  0  0  0  0  0
    4.8171   -2.7488    0.0000 C   0  0  0  0  0  4  0  0  0  0  0  0
    0.8777   -4.9668    0.0000 C   0  0  0  0  0  4  0  0  0  0  0  0
    6.0895   -0.8641    0.0000 C   0  0  0  0  0  4  0  0  0  0  0  0
    2.5855   -2.7488    0.0000 Cl  0  0  0  0  0  1  0  0  0  0  0  0
    5.5656   -4.2116    0.0000 Cl  0  0  0  0  0  1  0  0  0  0  0  0
    1.3336   -1.6738    0.0000 Cl  0  0  0  0  0  1  0  0  0  0  0  0
    4.3953   -3.1434    0.0000 Cl  0  0  0  0  0  1  0  0  0  0  0  0
    5.5928   -2.7488    0.0000 Cl  0  0  0  0  0  1  0  0  0  0  0  0
    1.3131   -3.1434    0.0000 Cl  0  0  0  0  0  1  0  0  0  0  0  0
    3.6129   -1.0070    0.0000 Cl  0  0  0  0  0  1  0  0  0  0  0  0
    3.2727   -4.8852    0.0000 Cl  0  0  0  0  0  1  0  0  0  0  0  0
    0.0000   -4.3341    0.0000 Cl  0  0  0  0  0  1  0  0  0  0  0  0
    0.6668   -5.9398    0.0000 Cl  0  0  0  0  0  1  0  0  0  0  0  0
    6.3616    0.0000    0.0000 Cl  0  0  0  0  0  1  0  0  0  0  0  0
    6.8039   -1.4764    0.0000 Cl  0  0  0  0  0  1  0  0  0  0  0  0
  1  3  1  0  0  0  0 
  1  5  1  0  0  0  0 
  1  7  1  0  0  0  0 
  1 13  1  0  0  0  0 
  2  7  1  0  0  0  0 
  2  4  1  0  0  0  0 
  2 14  1  0  0  0  0 
  2  5  1  0  0  0  0 
  3  6  1  0  0  0  0 
  3  8  1  0  0  0  0 
  3 11  1  0  0  0  0 
  4 12  1  0  0  0  0 
  4  8  1  0  0  0  0 
  4  6  1  0  0  0  0 
  5  9  1  0  0  0  0 
  5 16  1  0  0  0  0 
  6 18  1  0  0  0  0 
  6  9  1  0  0  0  0 
  7 10  1  0  0  0  0 
  7 17  1  0  0  0  0 
  8 15  1  0  0  0  0 
  8 10  1  0  0  0  0 
  9 19  1  0  0  0  0 
  9 20  1  0  0  0  0 
 10 21  1  0  0  0  0 
 10 22  1  0  0  0  0 
M  END
> <CDK Fingerprint>
BAAAAAAAAAAAAEAAAAAAAAAAAAEAwAAAAAAAAAAAAAAAAKAAYAAOQAAAAAAAAEAAAAEAAAGEAACAAEIAAAAAAAEAAAAAAAAAAAAAAAAAAAAAAAAAAAAAAEAAAAAAAAAQAAAAAAAAAAAAAAAAAAAAAAAA

> <ActivityOutcome_CPDBAS_Rat>
active

> <TD50_Rat_mmol>
0.00324

$$$$

  CDK     0721101958

 21 25  0  0  0  0  0  0  0  0999 V2000
    2.0533   -1.6453    0.0000 C   0  0  0  0  0  4  0  0  0  0  0  0
    3.5515   -3.0900    0.0000 C   0  0  0  0  0  4  0  0  0  0  0  0
    3.2170   -2.7021    0.0000 C   0  0  0  0  0  4  0  0  0  0  0  0
    4.7353   -4.1400    0.0000 C   0  0  0  0  0  4  0  0  0  0  0  0
    2.0533   -3.0900    0.0000 C   0  0  0  0  0  4  0  0  0  0  0  0
    3.2170   -4.1400    0.0000 C   0  0  0  0  0  4  0  0  0  0  0  0
    3.5515   -1.6453    0.0000 C   0  0  0  0  0  4  0  0  0  0  0  0
    4.7353   -2.7021    0.0000 C   0  0  0  0  0  4  0  0  0  0  0  0
    0.8628   -4.8824    0.0000 C   0  0  0  0  0  4  0  0  0  0  0  0
    5.9860   -0.8494    0.0000 C   0  0  0  0  0  4  0  0  0  0  0  0
    2.5415   -2.7021    0.0000 Cl  0  0  0  0  0  1  0  0  0  0  0  0
    5.4710   -4.1400    0.0000 Cl  0  0  0  0  0  1  0  0  0  0  0  0
    4.3206   -3.0900    0.0000 Cl  0  0  0  0  0  1  0  0  0  0  0  0
    5.4977   -2.7021    0.0000 Cl  0  0  0  0  0  1  0  0  0  0  0  0
    1.2908   -3.0900    0.0000 Cl  0  0  0  0  0  1  0  0  0  0  0  0
    3.5515   -0.9899    0.0000 Cl  0  0  0  0  0  1  0  0  0  0  0  0
    3.2170   -4.8022    0.0000 Cl  0  0  0  0  0  1  0  0  0  0  0  0
    0.0000   -4.2604    0.0000 Cl  0  0  0  0  0  1  0  0  0  0  0  0
    0.6554   -5.8388    0.0000 Cl  0  0  0  0  0  1  0  0  0  0  0  0
    6.2535    0.0000    0.0000 Cl  0  0  0  0  0  1  0  0  0  0  0  0
    6.6882   -1.4513    0.0000 Cl  0  0  0  0  0  1  0  0  0  0  0  0
  1  3  1  0  0  0  0 
  1  5  1  0  0  0  0 
  1  7  1  0  0  0  0 
  2  7  1  0  0  0  0 
  2  4  1  0  0  0  0 
  2 13  1  0  0  0  0 
  2  5  1  0  0  0  0 
  3  6  1  0  0  0  0 
  3  8  1  0  0  0  0 
  3 11  1  0  0  0  0 
  4 12  1  0  0  0  0 
  4  8  1  0  0  0  0 
  4  6  1  0  0  0  0 
  5  9  1  0  0  0  0 
  5 15  1  0  0  0  0 
  6 17  1  0  0  0  0 
  6  9  1  0  0  0  0 
  7 10  1  0  0  0  0 
  7 16  1  0  0  0  0 
  8 14  1  0  0  0  0 
  8 10  1  0  0  0  0 
  9 18  1  0  0  0  0 
  9 19  1  0  0  0  0 
 10 20  1  0  0  0  0 
 10 21  1  0  0  0  0 
M  END
> <CDK Fingerprint>
BAAAAAAAAAAAAEAAAAAAAAAAAAEAwAAAAAAAAAAAAAAAAKAAYAAOQAAAAAAAAEAAAAEAAAGEAACAAEIAAAAAAAEAAAAAAAAAAAAAAAAAAAAAAAAAAAAAAEAAAAAAAAAQAAAAAAAAAAAAAAAAAAAAAAAA

> <ActivityOutcome_CPDBAS_Rat>
active

> <TD50_Rat_mmol>
0.00286

$$$$

  CDK     0721101958

 27 27  0  0  0  0  0  0  0  0999 V2000
    8.5749   -0.6583    0.0000 C   0  0  0  0  0  4  0  0  0  0  0  0
    9.7270    0.0000    0.0000 C   0  0  0  0  0  4  0  0  0  0  0  0
   10.7145   -0.8888    0.0000 C   0  0  0  0  0  4  0  0  0  0  0  0
   10.1713   -2.1067    0.0000 C   0  0  0  0  0  4  0  0  0  0  0  0
    8.8382   -1.9586    0.0000 C   0  0  0  0  0  4  0  0  0  0  0  0
    7.9494   -2.9461    0.0000 C   0  0  0  0  0  4  0  0  0  0  0  0
    6.6657   -2.6169    0.0000 C   0  0  0  0  0  4  0  0  0  0  0  0
    5.7275   -3.5550    0.0000 C   0  0  0  0  0  4  0  0  0  0  0  0
    4.4438   -3.2094    0.0000 C   0  0  0  0  0  4  0  0  0  0  0  0
    3.5057   -4.1475    0.0000 C   0  0  0  0  0  4  0  0  0  0  0  0
    2.2219   -3.8019    0.0000 C   0  0  0  0  0  4  0  0  0  0  0  0
    1.2838   -4.7400    0.0000 C   0  0  0  0  0  4  0  0  0  0  0  0
    0.0000   -4.3944    0.0000 O   0  0  0  0  0  2  0  0  0  0  0  0
    1.6294   -6.0238    0.0000 O   0  0  0  0  0  2  0  0  0  0  0  0
    2.9131   -6.3694    0.0000 C   0  0  0  0  0  4  0  0  0  0  0  0
   10.8297   -3.2588    0.0000 C   0  0  0  0  0  4  0  0  0  0  0  0
   12.1628   -3.2588    0.0000 C   0  0  0  0  0  4  0  0  0  0  0  0
   12.8211   -4.4109    0.0000 C   0  0  0  0  0  4  0  0  0  0  0  0
   14.1543   -4.4109    0.0000 C   0  0  0  0  0  4  0  0  0  0  0  0
   15.4874   -4.4109    0.0000 O   0  0  0  0  0  2  0  0  0  0  0  0
   14.1543   -3.0777    0.0000 C   0  0  0  0  0  4  0  0  0  0  0  0
   15.3064   -2.4194    0.0000 C   0  0  0  0  0  4  0  0  0  0  0  0
   15.3064   -1.0863    0.0000 C   0  0  0  0  0  4  0  0  0  0  0  0
   16.4585   -0.4115    0.0000 C   0  0  0  0  0  4  0  0  0  0  0  0
   14.1543   -5.7440    0.0000 C   0  0  0  0  0  4  0  0  0  0  0  0
   12.0147   -0.6090    0.0000 O   0  0  0  0  0  2  0  0  0  0  0  0
    7.3569   -0.1317    0.0000 O   0  0  0  0  0  2  0  0  0  0  0  0
  1  2  1  0  0  0  0 
  1  5  1  0  0  0  0 
  1 27  2  0  0  0  0 
  2  3  1  0  0  0  0 
  3  4  1  0  0  0  0 
  3 26  1  1  0  0  0 
  4  5  1  0  0  0  0 
  4 16  1  6  0  0  0 
  5  6  1  1  0  0  0 
  6  7  1  0  0  0  0 
  7  8  1  0  0  0  0 
  8  9  1  0  0  0  0 
  9 10  1  0  0  0  0 
 10 11  1  0  0  0  0 
 11 12  1  0  0  0  0 
 12 13  2  0  0  0  0 
 12 14  1  0  0  0  0 
 14 15  1  0  0  0  0 
 16 17  2  0  0  0  0 
 17 18  1  0  0  0  0 
 18 19  1  0  0  0  0 
 19 20  1  0  0  0  0 
 19 21  1  0  0  0  0 
 19 25  1  0  0  0  0 
 21 22  1  0  0  0  0 
 22 23  1  0  0  0  0 
 23 24  1  0  0  0  0 
M  END
> <CDK Fingerprint>
QAAAAAAAAAQAAAIRAAQAACCABogEQADAAAAAgAEAAI1RCOAAAAIAAEAAACAQABAgAiAAAAAQIEAAECJAQAQAAAAAAAQgBAAIBAQAQiABAAAAAAAAAQBAAAEQAAAAAAAAAEAAAABAAAAAAAAAEAABAAAAAADQGAAAAABABAAAIA==

> <ActivityOutcome_CPDBAS_Rat>
inactive

$$$$

  CDK     0721101958

 24 27  0  0  0  0  0  0  0  0999 V2000
    5.5521   -5.5934    0.0000 C   0  0  0  0  0  4  0  0  0  0  0  0
    6.8346   -6.0154    0.0000 C   0  0  0  0  0  4  0  0  0  0  0  0
    4.7660   -6.6857    0.0000 N   0  0  0  0  0  3  0  0  0  0  0  0
    3.4918   -4.9398    0.0000 C   0  0  0  0  0  4  0  0  0  0  0  0
    3.4918   -6.2719    0.0000 C   0  0  0  0  0  4  0  0  0  0  0  0
    4.7660   -4.5095    0.0000 C   0  0  0  0  0  4  0  0  0  0  0  0
    7.9185   -6.6691    0.0000 N   0  0  0  0  0  3  0  0  0  0  0  0
    6.8346   -7.3476    0.0000 C   0  0  0  0  0  4  0  0  0  0  0  0
    2.3416   -4.2696    0.0000 C   0  0  0  0  0  4  0  0  0  0  0  0
    2.3416   -6.9422    0.0000 C   0  0  0  0  0  4  0  0  0  0  0  0
    1.1667   -6.2719    0.0000 C   0  0  0  0  0  4  0  0  0  0  0  0
    1.1667   -4.9398    0.0000 C   0  0  0  0  0  4  0  0  0  0  0  0
    5.5604   -7.7613    0.0000 C   0  0  0  0  0  4  0  0  0  0  0  0
    5.1963   -3.2518    0.0000 C   0  0  0  0  0  4  0  0  0  0  0  0
    4.7164   -0.9929    0.0000 C   0  0  0  0  0  4  0  0  0  0  0  0
    2.3416   -8.2743    0.0000 O   0  0  0  0  0  2  0  0  0  0  0  0
    2.3416   -2.9208    0.0000 O   0  0  0  0  0  2  0  0  0  0  0  0
    4.3109   -2.2589    0.0000 O   0  0  0  0  0  2  0  0  0  0  0  0
    6.3050   -4.5095    0.0000 O   0  0  0  0  0  2  0  0  0  0  0  0
    0.0000   -4.3109    0.0000 N   0  0  0  0  0  3  0  0  0  0  0  0
    6.0320   -0.7199    0.0000 O   0  0  0  0  0  2  0  0  0  0  0  0
    3.8145    0.0000    0.0000 N   0  0  0  0  0  3  0  0  0  0  0  0
    0.0000   -6.9256    0.0000 C   0  0  0  0  0  4  0  0  0  0  0  0
    6.3050   -3.2270    0.0000 C   0  0  0  0  0  4  0  0  0  0  0  0
  1  2  1  0  0  0  0 
  1  3  1  0  0  0  0 
  1  6  1  0  0  0  0 
  1 19  1  6  0  0  0 
  7  2  1  1  0  0  0 
  2  8  1  0  0  0  0 
  3  5  1  0  0  0  0 
  3 13  1  0  0  0  0 
  4  6  1  0  0  0  0 
  4  9  1  0  0  0  0 
  4  5  2  0  0  0  0 
  5 10  1  0  0  0  0 
  6 14  1  1  0  0  0 
  7  8  1  1  0  0  0 
  8 13  1  0  0  0  0 
  9 12  1  0  0  0  0 
  9 17  2  0  0  0  0 
 10 11  1  0  0  0  0 
 10 16  2  0  0  0  0 
 11 23  1  0  0  0  0 
 11 12  2  0  0  0  0 
 12 20  1  0  0  0  0 
 14 18  1  0  0  0  0 
 15 18  1  0  0  0  0 
 15 21  2  0  0  0  0 
 15 22  1  0  0  0  0 
 19 24  1  0  0  0  0 
M  END
> <CDK Fingerprint>
AKBEmUSG8qi1KriAG5QRMAITRRM2iARCgMAYKQLQARgkJVOI4BBEJgABjvEEiDAhWCNjMlcAMFECwARQKcVkBgBRBCx3j3wJWEi9EdFKtCPzJQLUUzZLQFFhRTFSAFACRAFIQH0OF8YIMqrraMASJIOcAlLuBfh5gAhSZEFW4g6g

> <ActivityOutcome_CPDBAS_Rat>
active

> <TD50_Rat_mmol>
0.00000305

$$$$

  CDK     0721101958

  5  4  0  0  0  0  0  0  0  0999 V2000
    3.4567   -1.9945    0.0000 O   0  0  0  0  0  2  0  0  0  0  0  0
    2.3056   -1.3308    0.0000 C   0  0  0  0  0  4  0  0  0  0  0  0
    2.3056    0.0000    0.0000 O   0  0  0  0  0  2  0  0  0  0  0  0
    1.1511   -1.9945    0.0000 C   0  0  0  0  0  4  0  0  0  0  0  0
    0.0000   -1.3308    0.0000 Cl  0  0  0  0  0  1  0  0  0  0  0  0
  1  2  1  0  0  0  0 
  2  3  2  0  0  0  0 
  2  4  1  0  0  0  0 
  4  5  1  0  0  0  0 
M  END
> <CDK Fingerprint>
AgAAAAAAAAAAAAAAAAAAAAACAAAAAAAA4AAAAAAAAAAAAAAAACAAAAACAAAAAAAAAAAAAAEAAAAIAAAAAAAAAAAAAAAAAAAAAAAAAAAAABAAAAAAAAAAQAAAAAAAAAAAAAAAAAAAAAAAAFAAAAAAAAAAAAAA

> <ActivityOutcome_CPDBAS_Rat>
inactive

$$$$

  CDK     0721101958

 23 25  0  0  0  0  0  0  0  0999 V2000
    4.1190   -1.8467    0.0000 C   0  0  0  0  0  4  0  0  0  0  0  0
    2.0631   -1.8467    0.0000 C   0  0  0  0  0  4  0  0  0  0  0  0
    1.0460   -3.6357    0.0000 C   0  0  0  0  0  4  0  0  0  0  0  0
    1.0460   -2.4454    0.0000 C   0  0  0  0  0  4  0  0  0  0  0  0
    2.0631   -4.2344    0.0000 O   0  0  0  0  0  2  0  0  0  0  0  0
    5.1217   -2.4454    0.0000 C   0  0  0  0  0  4  0  0  0  0  0  0
    2.0631   -5.4102    0.0000 C   0  0  0  0  0  4  0  0  0  0  0  0
    4.1190   -5.4102    0.0000 C   0  0  0  0  0  4  0  0  0  0  0  0
    3.0946   -7.1992    0.0000 N   0  0  0  0  0  3  0  0  0  0  0  0
    3.0946   -6.0089    0.0000 C   0  0  0  0  0  4  0  0  0  0  0  0
    5.1217   -3.6357    0.0000 O   0  0  0  0  0  2  0  0  0  0  0  0
    5.1217   -6.0089    0.0000 C   0  0  0  0  0  4  0  0  0  0  0  0
    1.0460   -6.0089    0.0000 C   0  0  0  0  0  4  0  0  0  0  0  0
    4.1190   -4.2344    0.0000 C   0  0  0  0  0  4  0  0  0  0  0  0
    5.1217   -7.1992    0.0000 C   0  0  0  0  0  4  0  0  0  0  0  0
    1.0460   -7.2136    0.0000 C   0  0  0  0  0  4  0  0  0  0  0  0
    0.0000   -4.2200    0.0000 O   0  0  0  0  0  2  0  0  0  0  0  0
    6.1676   -1.8467    0.0000 O   0  0  0  0  0  2  0  0  0  0  0  0
    3.6645   -1.0027    0.0000 O   0  0  0  0  0  2  0  0  0  0  0  0
    1.5581   -0.9594    0.0000 O   0  0  0  0  0  2  0  0  0  0  0  0
    5.5833   -0.4040    0.0000 C   0  0  0  0  0  4  0  0  0  0  0  0
    2.3877    0.0000    0.0000 C   0  0  0  0  0  4  0  0  0  0  0  0
    0.0433   -1.8467    0.0000 C   0  0  0  0  0  4  0  0  0  0  0  0
  1  2  1  0  0  0  0 
  1  6  1  0  0  0  0 
  1 19  1  1  0  0  0 
  1 21  1  6  0  0  0 
  2  4  1  0  0  0  0 
  2 20  1  1  0  0  0 
  2 22  1  6  0  0  0 
  3  4  1  0  0  0  0 
  3  5  1  0  0  0  0 
  3 17  2  0  0  0  0 
  4 23  1  6  0  0  0 
  7  5  1  1  0  0  0 
  6 11  1  0  0  0  0 
  6 18  2  0  0  0  0 
  7 13  1  0  0  0  0 
  7 10  1  0  0  0  0 
  8 14  1  0  0  0  0 
  8 10  1  0  0  0  0 
  8 12  2  0  0  0  0 
  9 10  1  0  0  0  0 
  9 16  1  0  0  0  0 
  9 15  1  0  0  0  0 
 11 14  1  0  0  0  0 
 12 15  1  0  0  0  0 
 13 16  1  0  0  0  0 
M  END
> <CDK Fingerprint>
AtCYBQkCAgBqAQGCBEMBQRUUSgIABDEC4TAEAIMAACAXAwBgRIwAAAACAAUJAADZbAYyBgSQEBJgAEQjwWAQQAAABAQMEgHAAEQAAVagUMgBAAhTIGDEQCAhMgACAEIIgQhIRRABAACBCAggQBAgB7UACAAE0H/ACEpoQQJCACA=

> <ActivityOutcome_CPDBAS_Rat>
active

> <TD50_Rat_mmol>
0.00289

$$$$

  CDK     0721101958

 14 14  0  0  0  0  0  0  0  0999 V2000
    2.3457   -1.9848    0.0000 C   0  0  0  0  0  4  0  0  0  0  0  0
    1.2700   -2.7690    0.0000 N   0  0  0  0  0  3  0  0  0  0  0  0
    3.4283   -2.7690    0.0000 C   0  0  0  0  0  4  0  0  0  0  0  0
    1.6794   -4.0390    0.0000 C   0  0  0  0  0  4  0  0  0  0  0  0
    3.0119   -4.0390    0.0000 N   0  0  0  0  0  3  0  0  0  0  0  0
    2.3457   -0.6662    0.0000 C   0  0  0  0  0  4  0  0  0  0  0  0
    1.2006    0.0000    0.0000 N   0  0  0  0  0  3  0  0  0  0  0  0
    4.6774   -2.3595    0.0000 N   0  0  0  0  0  3  0  0  0  0  0  0
    4.9550   -1.0549    0.0000 C   0  0  0  0  0  4  0  0  0  0  0  0
    0.0000   -2.3595    0.0000 C   0  0  0  0  0  4  0  0  0  0  0  0
    3.4907    0.0000    0.0000 O   0  0  0  0  0  2  0  0  0  0  0  0
    5.6698   -3.2548    0.0000 N   0  0  0  0  0  3  0  0  0  0  0  0
    0.0555   -0.6662    0.0000 C   0  0  0  0  0  4  0  0  0  0  0  0
    6.9398   -2.8384    0.0000 O   0  0  0  0  0  2  0  0  0  0  0  0
  1  2  1  0  0  0  0 
  1  6  1  0  0  0  0 
  1  3  2  0  0  0  0 
  2  4  1  0  0  0  0 
  2 10  1  0  0  0  0 
  3  5  1  0  0  0  0 
  3  8  1  0  0  0  0 
  4  5  2  0  0  0  0 
  6  7  1  0  0  0  0 
  6 11  2  0  0  0  0 
  7 13  1  0  0  0  0 
  8  9  1  0  0  0  0 
  8 12  1  0  0  0  0 
 12 14  2  0  0  0  0 
M  END
> <CDK Fingerprint>
IAgCIIKKFQIAoCAAAeUAAABggAAAAAAEACAAEEQgBFIIBOAATAQAAAAAAAAAYCFgAB2GAAIAAkgBAACAAgAQ0REAAAYAQABAQCRAAAAAkgBgEAAAQUAMIAQAQkAAiAQQAEQyBEBCFQCAAAQBIAEABAAAIgBQAEAAAAIAwQsAAg==

> <ActivityOutcome_CPDBAS_Rat>
active

> <TD50_Rat_mmol>
0.00507

$$$$

  CDK     0721101958

 24 27  0  0  0  0  0  0  0  0999 V2000
    3.4525    0.0000    0.0000 C   0  0  0  0  0  4  0  0  0  0  0  0
    2.3085   -0.6742    0.0000 C   0  0  0  0  0  4  0  0  0  0  0  0
    2.3085   -2.0020    0.0000 C   0  0  0  0  0  4  0  0  0  0  0  0
    3.4525   -2.6660    0.0000 C   0  0  0  0  0  4  0  0  0  0  0  0
    4.6067   -2.0020    0.0000 C   0  0  0  0  0  4  0  0  0  0  0  0
    4.6067   -0.6742    0.0000 C   0  0  0  0  0  4  0  0  0  0  0  0
    5.7609   -2.6660    0.0000 N   0  0  0  0  0  3  0  0  0  0  0  0
    5.7609   -3.9938    0.0000 C   0  0  0  0  0  4  0  0  0  0  0  0
    4.6067   -4.6578    0.0000 N   0  0  0  0  0  3  0  0  0  0  0  0
    3.4525   -3.9938    0.0000 C   0  0  0  0  0  4  0  0  0  0  0  0
    2.3085   -4.6578    0.0000 N   0  0  0  0  0  3  0  0  0  0  0  0
    2.3085   -5.9856    0.0000 C   0  0  0  0  0  4  0  0  0  0  0  0
    1.1542   -6.6496    0.0000 C   0  0  0  0  0  4  0  0  0  0  0  0
    0.0000   -5.9856    0.0000 O   0  0  0  0  0  2  0  0  0  0  0  0
    0.0000   -4.6578    0.0000 C   0  0  0  0  0  4  0  0  0  0  0  0
    1.1542   -3.9938    0.0000 C   0  0  0  0  0  4  0  0  0  0  0  0
    6.9151   -4.6578    0.0000 C   0  0  0  0  0  4  0  0  0  0  0  0
    8.1307   -4.1164    0.0000 C   0  0  0  0  0  4  0  0  0  0  0  0
    9.0193   -5.1072    0.0000 C   0  0  0  0  0  4  0  0  0  0  0  0
    8.3554   -6.2614    0.0000 C   0  0  0  0  0  4  0  0  0  0  0  0
    7.0479   -5.9856    0.0000 S   0  0  0  0  0  2  0  0  0  0  0  0
    8.8967   -7.4769    0.0000 N   0  0  0  0  0  4  0  0  0  0  0  0
   10.2144   -7.6097    0.0000 O   0  0  0  0  0  1  0  0  0  0  0  0
    8.1102   -8.5494    0.0000 O   0  0  0  0  0  2  0  0  0  0  0  0
  1  2  2  0  0  0  0 
  1  6  1  0  0  0  0 
  2  3  1  0  0  0  0 
  3  4  2  0  0  0  0 
  4  5  1  0  0  0  0 
  4 10  1  0  0  0  0 
  5  6  2  0  0  0  0 
  5  7  1  0  0  0  0 
  7  8  2  0  0  0  0 
  8  9  1  0  0  0  0 
  8 17  1  0  0  0  0 
  9 10  2  0  0  0  0 
 10 11  1  0  0  0  0 
 11 12  1  0  0  0  0 
 11 16  1  0  0  0  0 
 12 13  1  0  0  0  0 
 13 14  1  0  0  0  0 
 14 15  1  0  0  0  0 
 15 16  1  0  0  0  0 
 17 18  2  0  0  0  0 
 17 21  1  0  0  0  0 
 18 19  1  0  0  0  0 
 19 20  2  0  0  0  0 
 20 21  1  0  0  0  0 
 20 22  1  0  0  0  0 
 22 23  1  0  0  0  0 
 22 24  2  0  0  0  0 
M  CHG  1  22   1
M  CHG  1  23  -1
M  END
> <CDK Fingerprint>
IIVQQxmSKgVigFIOAACxKQEIACAAgbhBhQAAQAAUSCYQG4FiCYQAIKGMIAAAICqIIIbUAAogCoLDAYAMgI0JAGHIwEAEETwMgFkAJICAoNEAAEDAgAFAHCSCMLRIUICMoEAUosQgCRDABCAiQIChQAAEEFKgASEiBIASlAaKmEI=

> <ActivityOutcome_CPDBAS_Rat>
active

> <TD50_Rat_mmol>
0.0147

$$$$

  CDK     0721101958

 14 13  0  0  0  0  0  0  0  0999 V2000
    8.0636   -2.6597    0.0000 O   0  0  0  0  0  2  0  0  0  0  0  0
    8.0636   -1.3345    0.0000 S   0  0  0  0  0  6  0  0  0  0  0  0
    6.7384   -1.3345    0.0000 O   0  0  0  0  0  2  0  0  0  0  0  0
    9.3981   -1.3345    0.0000 O   0  0  0  0  0  2  0  0  0  0  0  0
    8.0636    0.0000    0.0000 C   0  0  0  0  0  4  0  0  0  0  0  0
    6.9170   -3.3269    0.0000 C   0  0  0  0  0  4  0  0  0  0  0  0
    5.7610   -2.6597    0.0000 C   0  0  0  0  0  4  0  0  0  0  0  0
    4.6145   -3.3269    0.0000 C   0  0  0  0  0  4  0  0  0  0  0  0
    3.4585   -2.6597    0.0000 C   0  0  0  0  0  4  0  0  0  0  0  0
    2.3025   -3.3269    0.0000 O   0  0  0  0  0  2  0  0  0  0  0  0
    1.1560   -2.6597    0.0000 S   0  0  0  0  0  6  0  0  0  0  0  0
    0.4887   -3.8156    0.0000 O   0  0  0  0  0  2  0  0  0  0  0  0
    0.0000   -2.0018    0.0000 C   0  0  0  0  0  4  0  0  0  0  0  0
    1.8138   -1.5131    0.0000 O   0  0  0  0  0  2  0  0  0  0  0  0
  1  2  1  0  0  0  0 
  1  6  1  0  0  0  0 
  2  3  2  0  0  0  0 
  2  4  2  0  0  0  0 
  2  5  1  0  0  0  0 
  6  7  1  0  0  0  0 
  7  8  1  0  0  0  0 
  8  9  1  0  0  0  0 
  9 10  1  0  0  0  0 
 10 11  1  0  0  0  0 
 11 12  2  0  0  0  0 
 11 13  1  0  0  0  0 
 11 14  2  0  0  0  0 
M  END
> <CDK Fingerprint>
EAAAAAAAAACCAAAAAAAAAAAAAAAAAAAAAAAAAAAAQAFkAABAAAAAAAAAAAAQIAACAAAgAAAAAAAAQAAAAAAAAAAAABMAAAAAACAAgAABBAACgIAAAAAJEAAAAAAAAEAAAAEAAAAAAAAAABAAAEAAAAAAADAQQAAAAAAAAAA=

> <ActivityOutcome_CPDBAS_Rat>
inactive

$$$$

  CDK     0721101958

 23 25  0  0  0  0  0  0  0  0999 V2000
    1.6416   -5.7565    0.0000 C   0  0  0  0  0  4  0  0  0  0  0  0
    2.2982   -4.6074    0.0000 C   0  0  0  0  0  4  0  0  0  0  0  0
    1.1491   -3.9398    0.0000 C   0  0  0  0  0  4  0  0  0  0  0  0
    0.0000   -4.6074    0.0000 O   0  0  0  0  0  2  0  0  0  0  0  0
    1.1491   -2.6156    0.0000 O   0  0  0  0  0  2  0  0  0  0  0  0
    2.9658   -3.4583    0.0000 O   0  0  0  0  0  2  0  0  0  0  0  0
    4.3010   -3.4583    0.0000 C   0  0  0  0  0  4  0  0  0  0  0  0
    4.9576   -2.2982    0.0000 C   0  0  0  0  0  4  0  0  0  0  0  0
    6.2928   -2.2982    0.0000 C   0  0  0  0  0  4  0  0  0  0  0  0
    6.9604   -3.4583    0.0000 C   0  0  0  0  0  4  0  0  0  0  0  0
    6.2928   -4.6074    0.0000 C   0  0  0  0  0  4  0  0  0  0  0  0
    4.9576   -4.6074    0.0000 C   0  0  0  0  0  4  0  0  0  0  0  0
    8.2846   -3.4583    0.0000 C   0  0  0  0  0  4  0  0  0  0  0  0
    8.9522   -4.6074    0.0000 C   0  0  0  0  0  4  0  0  0  0  0  0
   10.2764   -4.6074    0.0000 C   0  0  0  0  0  4  0  0  0  0  0  0
   10.9440   -3.4583    0.0000 C   0  0  0  0  0  4  0  0  0  0  0  0
   10.2764   -2.2982    0.0000 C   0  0  0  0  0  4  0  0  0  0  0  0
    8.9522   -2.2982    0.0000 C   0  0  0  0  0  4  0  0  0  0  0  0
    8.2846   -1.1491    0.0000 C   0  0  0  0  0  4  0  0  0  0  0  0
    8.9522    0.0000    0.0000 C   0  0  0  0  0  4  0  0  0  0  0  0
   10.2764    0.0000    0.0000 C   0  0  0  0  0  4  0  0  0  0  0  0
   10.9440   -1.1491    0.0000 C   0  0  0  0  0  4  0  0  0  0  0  0
    3.4583   -5.2750    0.0000 C   0  0  0  0  0  4  0  0  0  0  0  0
  1  2  1  0  0  0  0 
  2  3  1  0  0  0  0 
  2  6  1  0  0  0  0 
  2 23  1  0  0  0  0 
  3  4  1  0  0  0  0 
  3  5  2  0  0  0  0 
  6  7  1  0  0  0  0 
  7  8  2  0  0  0  0 
  7 12  1  0  0  0  0 
  8  9  1  0  0  0  0 
  9 10  2  0  0  0  0 
 10 11  1  0  0  0  0 
 10 13  1  0  0  0  0 
 11 12  2  0  0  0  0 
 13 14  1  0  0  0  0 
 13 18  1  0  0  0  0 
 14 15  1  0  0  0  0 
 15 16  1  0  0  0  0 
 16 17  1  0  0  0  0 
 17 18  2  0  0  0  0 
 17 22  1  0  0  0  0 
 18 19  1  0  0  0  0 
 19 20  2  0  0  0  0 
 20 21  1  0  0  0  0 
 21 22  2  0  0  0  0 
M  END
> <CDK Fingerprint>
BAAAIAACAAAAQQDSAJAABBAJAgAAAAAAwAACAAAAAIAIAQJhAEAAAAMAAAwCIAAYIAIkKACAAABAAQAIQAAAAgAGGAAAABBABAAABEIAYIAIEAgAwACEAIiAEAQICsAAIABKAEAgMCEAAAAGQDAEAaAAHACAWCBFAAAAAAAgAAA=

> <ActivityOutcome_CPDBAS_Rat>
active

> <TD50_Rat_mmol>
0.0354

$$$$

  CDK     0721101958

 17 18  0  0  0  0  0  0  0  0999 V2000
    1.1543   -3.9880    0.0000 O   0  0  0  0  0  2  0  0  0  0  0  0
    2.3016   -3.3245    0.0000 C   0  0  0  0  0  4  0  0  0  0  0  0
    3.4558   -3.9880    0.0000 C   0  0  0  0  0  4  0  0  0  0  0  0
    4.6101   -3.3245    0.0000 C   0  0  0  0  0  4  0  0  0  0  0  0
    5.7574   -3.9880    0.0000 N   0  0  0  0  0  3  0  0  0  0  0  0
    5.7574   -5.3220    0.0000 C   0  0  0  0  0  4  0  0  0  0  0  0
    4.6101   -5.9855    0.0000 C   0  0  0  0  0  4  0  0  0  0  0  0
    3.4558   -5.3220    0.0000 C   0  0  0  0  0  4  0  0  0  0  0  0
    6.9117   -5.9855    0.0000 C   0  0  0  0  0  4  0  0  0  0  0  0
    4.6101   -1.9975    0.0000 N   0  0  0  0  0  3  0  0  0  0  0  0
    3.4558   -1.3270    0.0000 C   0  0  0  0  0  4  0  0  0  0  0  0
    2.3016   -1.9975    0.0000 C   0  0  0  0  0  4  0  0  0  0  0  0
    1.1543   -1.3270    0.0000 C   0  0  0  0  0  4  0  0  0  0  0  0
    1.1543    0.0000    0.0000 O   0  0  0  0  0  2  0  0  0  0  0  0
    0.0000   -1.9975    0.0000 O   0  0  0  0  0  2  0  0  0  0  0  0
    5.7574   -1.3270    0.0000 C   0  0  0  0  0  4  0  0  0  0  0  0
    5.7574    0.0000    0.0000 C   0  0  0  0  0  4  0  0  0  0  0  0
  1  2  2  0  0  0  0 
  2  3  1  0  0  0  0 
  2 12  1  0  0  0  0 
  3  4  2  0  0  0  0 
  3  8  1  0  0  0  0 
  4  5  1  0  0  0  0 
  4 10  1  0  0  0  0 
  5  6  2  0  0  0  0 
  6  7  1  0  0  0  0 
  6  9  1  0  0  0  0 
  7  8  2  0  0  0  0 
 10 11  1  0  0  0  0 
 10 16  1  0  0  0  0 
 11 12  2  0  0  0  0 
 12 13  1  0  0  0  0 
 13 14  2  0  0  0  0 
 13 15  1  0  0  0  0 
 16 17  1  0  0  0  0 
M  END
> <CDK Fingerprint>
SIq6GJCKB2Ijw16gAGCAAYAIAgAEQMAhCABiBIQI5sAICHggYRxUiIABkCQCBJhoSDwAGBIaAEAQACLUDAAAwVGABAUAhAAGEzCJgIAAlUSAAAIQIRAAQIA4EQAUgQDgAMIQSTCmAACCoQpQEISDCBBdYIR7FkQAgEEgIMLoAQ==

> <ActivityOutcome_CPDBAS_Rat>
active

> <TD50_Rat_mmol>
0.866

$$$$

  CDK     0721101958

 10 11  0  0  0  0  0  0  0  0999 V2000
    3.4558    0.0000    0.0000 C   0  0  0  0  0  4  0  0  0  0  0  0
    2.3039   -0.6635    0.0000 C   0  0  0  0  0  4  0  0  0  0  0  0
    2.3039   -1.9952    0.0000 C   0  0  0  0  0  4  0  0  0  0  0  0
    3.4558   -2.6587    0.0000 C   0  0  0  0  0  4  0  0  0  0  0  0
    4.6078   -1.9952    0.0000 C   0  0  0  0  0  4  0  0  0  0  0  0
    4.6078   -0.6635    0.0000 C   0  0  0  0  0  4  0  0  0  0  0  0
    1.1519   -2.6587    0.0000 C   0  0  0  0  0  4  0  0  0  0  0  0
    0.0000   -1.9952    0.0000 C   0  0  0  0  0  4  0  0  0  0  0  0
    0.0000   -0.6635    0.0000 C   0  0  0  0  0  4  0  0  0  0  0  0
    1.1519    0.0000    0.0000 C   0  0  0  0  0  4  0  0  0  0  0  0
  1  2  2  0  0  0  0 
  1  6  1  0  0  0  0 
  2  3  1  0  0  0  0 
  2 10  1  0  0  0  0 
  3  4  2  0  0  0  0 
  3  7  1  0  0  0  0 
  4  5  1  0  0  0  0 
  5  6  2  0  0  0  0 
  7  8  2  0  0  0  0 
  8  9  1  0  0  0  0 
  9 10  2  0  0  0  0 
M  END
> <CDK Fingerprint>
QAAAAAAAAAAAAAAAAAAAAAAAAAAAQAAAAACAAAAAAAAAAACAAAAAAAAAAAAAAAAAAAAAAAAAAAAAAAAAACAAAAAAIAAAAAAAAgAAAAAAAAAAgAAAAEAAAAAAAAAA

> <ActivityOutcome_CPDBAS_Rat>
active

> <TD50_Rat_mmol>
0.172

$$$$

  CDK     0721101958

 12 13  0  0  0  0  0  0  0  0999 V2000
    5.7579   -1.9922    0.0000 N   0  0  0  0  0  3  0  0  0  0  0  0
    4.6063   -2.6601    0.0000 C   0  0  0  0  0  4  0  0  0  0  0  0
    3.4547   -1.9922    0.0000 C   0  0  0  0  0  4  0  0  0  0  0  0
    2.3031   -2.6601    0.0000 C   0  0  0  0  0  4  0  0  0  0  0  0
    2.3031   -3.9902    0.0000 C   0  0  0  0  0  4  0  0  0  0  0  0
    3.4547   -4.6524    0.0000 C   0  0  0  0  0  4  0  0  0  0  0  0
    4.6063   -3.9902    0.0000 C   0  0  0  0  0  4  0  0  0  0  0  0
    1.1516   -1.9922    0.0000 C   0  0  0  0  0  4  0  0  0  0  0  0
    1.1516   -0.6622    0.0000 C   0  0  0  0  0  4  0  0  0  0  0  0
    2.3031    0.0000    0.0000 C   0  0  0  0  0  4  0  0  0  0  0  0
    3.4547   -0.6622    0.0000 C   0  0  0  0  0  4  0  0  0  0  0  0
    0.0000   -2.6601    0.0000 N   0  0  0  0  0  3  0  0  0  0  0  0
  1  2  1  0  0  0  0 
  2  3  2  0  0  0  0 
  2  7  1  0  0  0  0 
  3  4  1  0  0  0  0 
  3 11  1  0  0  0  0 
  4  5  2  0  0  0  0 
  4  8  1  0  0  0  0 
  5  6  1  0  0  0  0 
  6  7  2  0  0  0  0 
  8  9  2  0  0  0  0 
  8 12  1  0  0  0  0 
  9 10  1  0  0  0  0 
 10 11  2  0  0  0  0 
M  END
> <CDK Fingerprint>
KAAAAAAAAAEAAAAAAAAAQBAAAAAABAACAAAAYAAAAAAAAAAAAAAAAAAAAAAAAAAAQAAAAACAAAAAAAAAAACAAAAAAAAAAAAAAAAAAAAAAAAAQAAAAAAAACAAAAAAIAAAAAAAAgAAAAAAAAAAgAAAAEAAAAAAAhAA

> <ActivityOutcome_CPDBAS_Rat>
active

> <TD50_Rat_mmol>
0.44

$$$$

  CDK     0721101958

 11 12  0  0  0  0  0  0  0  0999 V2000
    3.4554   -1.9983    0.0000 C   0  0  0  0  0  4  0  0  0  0  0  0
    3.4554   -0.6680    0.0000 C   0  0  0  0  0  4  0  0  0  0  0  0
    2.3036    0.0000    0.0000 C   0  0  0  0  0  4  0  0  0  0  0  0
    1.1518   -0.6680    0.0000 C   0  0  0  0  0  4  0  0  0  0  0  0
    1.1518   -1.9983    0.0000 C   0  0  0  0  0  4  0  0  0  0  0  0
    2.3036   -2.6606    0.0000 C   0  0  0  0  0  4  0  0  0  0  0  0
    0.0000   -2.6606    0.0000 N   0  0  0  0  0  3  0  0  0  0  0  0
    4.6071    0.0000    0.0000 C   0  0  0  0  0  4  0  0  0  0  0  0
    5.7589   -0.6680    0.0000 C   0  0  0  0  0  4  0  0  0  0  0  0
    5.7589   -1.9983    0.0000 C   0  0  0  0  0  4  0  0  0  0  0  0
    4.6071   -2.6606    0.0000 C   0  0  0  0  0  4  0  0  0  0  0  0
  1  2  2  0  0  0  0 
  1  6  1  0  0  0  0 
  1 11  1  0  0  0  0 
  2  3  1  0  0  0  0 
  2  8  1  0  0  0  0 
  3  4  2  0  0  0  0 
  4  5  1  0  0  0  0 
  5  6  2  0  0  0  0 
  5  7  1  0  0  0  0 
  8  9  2  0  0  0  0 
  9 10  1  0  0  0  0 
 10 11  2  0  0  0  0 
M  END
> <CDK Fingerprint>
IAAAAAAAAAEAAAAAAAAAQAAAAAAABAACAAAAYAAAAAAAAAAAAAAAAAAAAAAAAAAAQAAAAACAAAAAAAAAAACAAAAAAAAAAAAAAAAAAAAAAAAAQAAAAAAAACAAAAAAIAAAAAAAAgAAAAAAAAAAgAAAAEAAAAAAAhAA

> <ActivityOutcome_CPDBAS_Rat>
active

> <TD50_Rat_mmol>
0.43

$$$$

  CDK     0721101958

 18 19  0  0  0  0  0  0  0  0999 V2000
    4.6082   -3.3276    0.0000 O   0  0  0  0  0  2  0  0  0  0  0  0
    4.6082   -2.0020    0.0000 C   0  0  0  0  0  4  0  0  0  0  0  0
    5.7625   -1.3347    0.0000 C   0  0  0  0  0  4  0  0  0  0  0  0
    6.9168   -2.0020    0.0000 N   0  0  0  0  0  3  0  0  0  0  0  0
    8.1252   -1.4609    0.0000 C   0  0  0  0  0  4  0  0  0  0  0  0
    8.4047   -0.1533    0.0000 O   0  0  0  0  0  2  0  0  0  0  0  0
    9.0179   -2.4439    0.0000 C   0  0  0  0  0  4  0  0  0  0  0  0
    8.3506   -3.5982    0.0000 C   0  0  0  0  0  4  0  0  0  0  0  0
    7.0520   -3.3186    0.0000 C   0  0  0  0  0  4  0  0  0  0  0  0
    3.4539   -1.3347    0.0000 N   0  0  0  0  0  3  0  0  0  0  0  0
    2.3086   -2.0020    0.0000 C   0  0  0  0  0  4  0  0  0  0  0  0
    2.3086   -3.3276    0.0000 C   0  0  0  0  0  4  0  0  0  0  0  0
    1.1543   -3.9949    0.0000 C   0  0  0  0  0  4  0  0  0  0  0  0
    0.0000   -3.3276    0.0000 C   0  0  0  0  0  4  0  0  0  0  0  0
    0.0000   -2.0020    0.0000 C   0  0  0  0  0  4  0  0  0  0  0  0
    1.1543   -1.3347    0.0000 C   0  0  0  0  0  4  0  0  0  0  0  0
    1.1543    0.0000    0.0000 C   0  0  0  0  0  4  0  0  0  0  0  0
    3.4539   -3.9949    0.0000 C   0  0  0  0  0  4  0  0  0  0  0  0
  1  2  2  0  0  0  0 
  2  3  1  0  0  0  0 
  2 10  1  0  0  0  0 
  3  4  1  0  0  0  0 
  4  5  1  0  0  0  0 
  4  9  1  0  0  0  0 
  5  6  2  0  0  0  0 
  5  7  1  0  0  0  0 
  7  8  1  0  0  0  0 
  8  9  1  0  0  0  0 
 10 11  1  0  0  0  0 
 11 12  2  0  0  0  0 
 11 16  1  0  0  0  0 
 12 13  1  0  0  0  0 
 12 18  1  0  0  0  0 
 13 14  2  0  0  0  0 
 14 15  1  0  0  0  0 
 15 16  2  0  0  0  0 
 16 17  1  0  0  0  0 
M  END
> <CDK Fingerprint>
AIAQAAAAACAiAAACAAEoAAABACAAAENAAQEAABAEwEIEAABgAAAEAAAAMACAAAGAcAAUEAJCAgBAAEQgwCQAAMAEgAAAAAFQQCAAAASABLAEAAAAIABAAACEAAAAAIAAYABAAEAgAAAQAKACUBAAAYAAAMCAUABAAIAABABCEAA=

> <ActivityOutcome_CPDBAS_Rat>
inactive

$$$$

  CDK     0721101958

 12 13  0  0  0  0  0  0  0  0999 V2000
    4.8433    2.1346    0.0000 N   0  0  0  0  0  3  0  0  0  0  0  0
    3.6953    1.3334    0.0000 C   0  0  0  0  0  4  0  0  0  0  0  0
    2.4157    1.9074    0.0000 C   0  0  0  0  0  4  0  0  0  0  0  0
    1.2138    4.0062    0.0000 N   0  0  0  0  0  3  0  0  0  0  0  0
    2.4157    3.2947    0.0000 C   0  0  0  0  0  4  0  0  0  0  0  0
    5.9794    1.3454    0.0000 C   0  0  0  0  0  4  0  0  0  0  0  0
    4.8433    3.5637    0.0000 C   0  0  0  0  0  4  0  0  0  0  0  0
    4.1497    0.0000    0.0000 C   0  0  0  0  0  4  0  0  0  0  0  0
    5.5668    0.0000    0.0000 C   0  0  0  0  0  4  0  0  0  0  0  0
    1.2138    1.2138    0.0000 C   0  0  0  0  0  4  0  0  0  0  0  0
    0.0000    3.3126    0.0000 C   0  0  0  0  0  4  0  0  0  0  0  0
    0.0000    1.9074    0.0000 C   0  0  0  0  0  4  0  0  0  0  0  0
  2  1  1  0  0  0  0 
  6  1  1  0  0  0  0 
  7  1  1  0  0  0  0 
  2  3  1  1  0  0  0 
  8  2  1  0  0  0  0 
  5  3  2  0  0  0  0 
 10  3  1  0  0  0  0 
  5  4  1  0  0  0  0 
 11  4  2  0  0  0  0 
  9  6  1  0  0  0  0 
  9  8  1  0  0  0  0 
 12 10  2  0  0  0  0 
 12 11  1  0  0  0  0 
M  END
> <CDK Fingerprint>
EAogkAIAAhCAHAABAAAAIAAAAAAAhAAAACAAAAg0AAEBYIAAEZAAgAEIAAAkCSIAGQRAQAAAQAAAAMAAACABCAAAAAAAQCABIABCAACAAIAAACAAQAARgDAAAACAACAAwAIAMSIAAAACIEAQBCBIEB4ggAAABACAAAIAAqAg

> <ActivityOutcome_CPDBAS_Rat>
inactive

$$$$

  CDK     0721101958

 14 14  0  0  0  0  0  0  0  0999 V2000
    2.7683   -1.7254    0.0000 C   0  0  0  0  0  4  0  0  0  0  0  0
    4.0719   -2.0014    0.0000 N   0  0  0  0  0  3  0  0  0  0  0  0
    4.2099   -3.3280    0.0000 C   0  0  0  0  0  4  0  0  0  0  0  0
    2.9983   -3.8648    0.0000 S   0  0  0  0  0  2  0  0  0  0  0  0
    2.1088   -2.8756    0.0000 C   0  0  0  0  0  4  0  0  0  0  0  0
    0.7822   -3.0136    0.0000 N   0  0  0  0  0  4  0  0  0  0  0  0
    0.0000   -1.9401    0.0000 O   0  0  0  0  0  1  0  0  0  0  0  0
    0.2377   -4.2329    0.0000 O   0  0  0  0  0  2  0  0  0  0  0  0
    5.3602   -3.9875    0.0000 N   0  0  0  0  0  3  0  0  0  0  0  0
    6.5181   -3.3280    0.0000 C   0  0  0  0  0  4  0  0  0  0  0  0
    6.5181   -1.9938    0.0000 N   0  0  0  0  0  3  0  0  0  0  0  0
    7.6683   -1.3266    0.0000 C   0  0  0  0  0  4  0  0  0  0  0  0
    7.6683    0.0000    0.0000 C   0  0  0  0  0  4  0  0  0  0  0  0
    7.6683   -3.9875    0.0000 O   0  0  0  0  0  2  0  0  0  0  0  0
  1  2  1  0  0  0  0 
  1  5  2  0  0  0  0 
  2  3  2  0  0  0  0 
  3  4  1  0  0  0  0 
  3  9  1  0  0  0  0 
  4  5  1  0  0  0  0 
  5  6  1  0  0  0  0 
  6  7  1  0  0  0  0 
  6  8  2  0  0  0  0 
  9 10  1  0  0  0  0 
 10 11  1  0  0  0  0 
 10 14  2  0  0  0  0 
 11 12  1  0  0  0  0 
 12 13  1  0  0  0  0 
M  CHG  1   6   1
M  CHG  1   7  -1
M  END
> <CDK Fingerprint>
AiIQqAoGQhACTIAAIABBAQAgACFQCAAgAQgEBEIEACABYAQgAIQBCAAAGgABACAARIACAAIgwIKAAIgBCBCBGAIAAgCgBQAAAARAAASAAAAAEAJhAAAwAQCiAAAAAAIARCAEAANEgQAwApAAoCICAEBAQEgAgAgAAABUBlAA

> <ActivityOutcome_CPDBAS_Rat>
active

> <TD50_Rat_mmol>
0.606

$$$$

  CDK     0721101958

 13 12  0  0  0  0  0  0  0  0999 V2000
    0.0000   -5.7554    0.0000 O   0  0  0  0  0  2  0  0  0  0  0  0
    0.6641   -4.6067    0.0000 C   0  0  0  0  0  4  0  0  0  0  0  0
    0.0000   -3.4520    0.0000 O   0  0  0  0  0  2  0  0  0  0  0  0
    1.9922   -4.6067    0.0000 C   0  0  0  0  0  4  0  0  0  0  0  0
    2.6563   -3.4520    0.0000 N   0  0  0  0  0  3  0  0  0  0  0  0
    1.9922   -2.3033    0.0000 C   0  0  0  0  0  4  0  0  0  0  0  0
    2.6563   -1.1487    0.0000 C   0  0  0  0  0  4  0  0  0  0  0  0
    3.9905   -1.1487    0.0000 O   0  0  0  0  0  2  0  0  0  0  0  0
    1.9922    0.0000    0.0000 O   0  0  0  0  0  2  0  0  0  0  0  0
    3.9905   -3.4520    0.0000 C   0  0  0  0  0  4  0  0  0  0  0  0
    4.6546   -4.6067    0.0000 C   0  0  0  0  0  4  0  0  0  0  0  0
    5.9827   -4.6067    0.0000 O   0  0  0  0  0  2  0  0  0  0  0  0
    3.9905   -5.7554    0.0000 O   0  0  0  0  0  2  0  0  0  0  0  0
  1  2  1  0  0  0  0 
  2  3  2  0  0  0  0 
  2  4  1  0  0  0  0 
  4  5  1  0  0  0  0 
  5  6  1  0  0  0  0 
  5 10  1  0  0  0  0 
  6  7  1  0  0  0  0 
  7  8  2  0  0  0  0 
  7  9  1  0  0  0  0 
 10 11  1  0  0  0  0 
 11 12  2  0  0  0  0 
 11 13  1  0  0  0  0 
M  END
> <CDK Fingerprint>
EAAAAAAAAgAAAgAAAAAAAQAAAAAAAAAAAAAAAAAAAAAAYAAAAAAAAEAAAAAACGAAAAAAAAAAAAAAAIAAAAAAAAAAAAAAAAAAAAAAAACAAAAAQAAAAAAAABAAAAAAAAAAQAAAAAAAAABAAAAAAACAAAAAAFABAAAAAAAAAgAA

> <ActivityOutcome_CPDBAS_Rat>
active

> <TD50_Rat_mmol>
9.26

$$$$

  CDK     0721101958

 16 16  0  0  0  0  0  0  0  0999 V2000
    5.3188   -4.6108    0.0000 C   0  0  0  0  0  4  0  0  0  0  0  0
    3.9961   -4.6108    0.0000 C   0  0  0  0  0  4  0  0  0  0  0  0
    3.3254   -3.4651    0.0000 C   0  0  0  0  0  4  0  0  0  0  0  0
    3.9961   -2.3101    0.0000 C   0  0  0  0  0  4  0  0  0  0  0  0
    1.9934   -3.4651    0.0000 N   0  0  0  0  0  3  0  0  0  0  0  0
    1.3320   -4.6108    0.0000 C   0  0  0  0  0  4  0  0  0  0  0  0
    0.0000   -4.6108    0.0000 O   0  0  0  0  0  2  0  0  0  0  0  0
    1.9934   -5.7659    0.0000 C   0  0  0  0  0  4  0  0  0  0  0  0
    5.9894   -3.4651    0.0000 C   0  0  0  0  0  4  0  0  0  0  0  0
    7.3215   -3.4651    0.0000 O   0  0  0  0  0  2  0  0  0  0  0  0
    7.9828   -4.6108    0.0000 C   0  0  0  0  0  4  0  0  0  0  0  0
    9.3148   -4.6108    0.0000 C   0  0  0  0  0  4  0  0  0  0  0  0
    5.3188   -2.3101    0.0000 C   0  0  0  0  0  4  0  0  0  0  0  0
    5.9894   -1.1550    0.0000 N   0  0  0  0  0  4  0  0  0  0  0  0
    5.3188    0.0000    0.0000 O   0  0  0  0  0  1  0  0  0  0  0  0
    7.3215   -1.1550    0.0000 O   0  0  0  0  0  2  0  0  0  0  0  0
  1  2  2  0  0  0  0 
  1  9  1  0  0  0  0 
  2  3  1  0  0  0  0 
  3  4  2  0  0  0  0 
  3  5  1  0  0  0  0 
  4 13  1  0  0  0  0 
  5  6  1  0  0  0  0 
  6  7  2  0  0  0  0 
  6  8  1  0  0  0  0 
  9 10  1  0  0  0  0 
  9 13  2  0  0  0  0 
 10 11  1  0  0  0  0 
 11 12  1  0  0  0  0 
 13 14  1  0  0  0  0 
 14 15  1  0  0  0  0 
 14 16  2  0  0  0  0 
M  CHG  1  14   1
M  CHG  1  15  -1
M  END
> <CDK Fingerprint>
EAIAMCIAwAoAEAAEAAgAAAAAGECBgAAAAATBBggAAmEJBAAACAAACCAAAIAgAgQgAoACAEAECIiABAAAwAqQABAAwQGAAAAEBIiAkQIBCAAAACAABgAQAIAQAAAgAEQABCAgIABAIAIgAAAAAACABIhQAFAAgBAIACIwAA==

> <ActivityOutcome_CPDBAS_Rat>
inactive

$$$$

  CDK     0721101958

 12 12  0  0  0  0  0  0  0  0999 V2000
    0.0000   -3.4588    0.0000 O   0  0  0  0  0  2  0  0  0  0  0  0
    0.6652   -2.3081    0.0000 N   0  0  0  0  0  4  0  0  0  0  0  0
    1.9955   -2.3081    0.0000 C   0  0  0  0  0  4  0  0  0  0  0  0
    2.6606   -1.1574    0.0000 C   0  0  0  0  0  4  0  0  0  0  0  0
    3.9909   -1.1574    0.0000 C   0  0  0  0  0  4  0  0  0  0  0  0
    4.6561   -2.3081    0.0000 C   0  0  0  0  0  4  0  0  0  0  0  0
    3.9909   -3.4588    0.0000 C   0  0  0  0  0  4  0  0  0  0  0  0
    2.6606   -3.4588    0.0000 C   0  0  0  0  0  4  0  0  0  0  0  0
    5.9864   -2.3081    0.0000 O   0  0  0  0  0  2  0  0  0  0  0  0
    6.6515   -3.4588    0.0000 C   0  0  0  0  0  4  0  0  0  0  0  0
    4.6561    0.0000    0.0000 N   0  0  0  0  0  3  0  0  0  0  0  0
    0.0000   -1.1574    0.0000 O   0  0  0  0  0  1  0  0  0  0  0  0
  1  2  2  0  0  0  0 
  2  3  1  0  0  0  0 
  2 12  1  0  0  0  0 
  3  4  2  0  0  0  0 
  3  8  1  0  0  0  0 
  4  5  1  0  0  0  0 
  5  6  2  0  0  0  0 
  5 11  1  0  0  0  0 
  6  7  1  0  0  0  0 
  6  9  1  0  0  0  0 
  7  8  2  0  0  0  0 
  9 10  1  0  0  0  0 
M  CHG  1   2   1
M  CHG  1  12  -1
M  END
> <CDK Fingerprint>
EAIAACAAgAoAMAAEAAgAAAAAGECIAAEAAAQABgAAAmEBBAAAAAAAAAAAAAAAAAAgAgAAAEAEAIAAAAAAAAoQAAAAQACAAAAEAAiAgAABAAAAACAAAAAAAAAQAAAgAAQAACAgIABAIAIACAAAAAAAAIAAABAAAAAAACIQAA==

> <ActivityOutcome_CPDBAS_Rat>
active

> <TD50_Rat_mmol>
0.321

$$$$

  CDK     0721101958

 14 14  0  0  0  0  0  0  0  0999 V2000
    0.2393   -2.5025    0.0000 O   0  0  0  0  0  2  0  0  0  0  0  0
    0.7777   -1.2861    0.0000 N   0  0  0  0  0  4  0  0  0  0  0  0
    2.1037   -1.1466    0.0000 C   0  0  0  0  0  4  0  0  0  0  0  0
    2.7717    0.0000    0.0000 C   0  0  0  0  0  4  0  0  0  0  0  0
    4.0678   -0.2692    0.0000 C   0  0  0  0  0  4  0  0  0  0  0  0
    4.2074   -1.5952    0.0000 C   0  0  0  0  0  4  0  0  0  0  0  0
    2.9910   -2.1336    0.0000 O   0  0  0  0  0  2  0  0  0  0  0  0
    5.3639   -2.2632    0.0000 C   0  0  0  0  0  4  0  0  0  0  0  0
    6.5105   -1.5952    0.0000 N   0  0  0  0  0  3  0  0  0  0  0  0
    7.6670   -2.2632    0.0000 N   0  0  0  0  0  3  0  0  0  0  0  0
    8.8136   -1.5952    0.0000 C   0  0  0  0  0  4  0  0  0  0  0  0
    8.8136   -0.2692    0.0000 O   0  0  0  0  0  2  0  0  0  0  0  0
    9.9701   -2.2632    0.0000 N   0  0  0  0  0  3  0  0  0  0  0  0
    0.0000   -0.2094    0.0000 O   0  0  0  0  0  1  0  0  0  0  0  0
  1  2  2  0  0  0  0 
  2  3  1  0  0  0  0 
  2 14  1  0  0  0  0 
  3  4  2  0  0  0  0 
  3  7  1  0  0  0  0 
  4  5  1  0  0  0  0 
  5  6  2  0  0  0  0 
  6  7  1  0  0  0  0 
  6  8  1  0  0  0  0 
  8  9  2  0  0  0  0 
  9 10  1  0  0  0  0 
 10 11  1  0  0  0  0 
 11 12  2  0  0  0  0 
 11 13  1  0  0  0  0 
M  CHG  1   2   1
M  CHG  1  14  -1
M  END
> <CDK Fingerprint>
DBAAMAJBICMQEAoAAMAgAEooIAAAEMFQBABQAAQgBEBAIGAABAACABAAAAAAIAAggAAAAgAAQEsAAgAABIASAAAQAABAAAAAAgAAUAyAAAAAA0AQCgQAQIAAACAAgQUgAEQgFCQEAQIAMghAkDIAAACIoALQAEgAAAACAAMgIA==

> <ActivityOutcome_CPDBAS_Rat>
active

> <TD50_Rat_mmol>
0.0352

$$$$

  CDK     0721101958

 12 12  0  0  0  0  0  0  0  0999 V2000
    3.5551   -1.6933    0.0000 O   0  0  0  0  0  2  0  0  0  0  0  0
    4.3367   -2.7736    0.0000 C   0  0  0  0  0  4  0  0  0  0  0  0
    3.5551   -3.8463    0.0000 C   0  0  0  0  0  4  0  0  0  0  0  0
    2.2909   -3.4326    0.0000 C   0  0  0  0  0  4  0  0  0  0  0  0
    2.2909   -2.1070    0.0000 C   0  0  0  0  0  4  0  0  0  0  0  0
    1.2183   -1.3255    0.0000 N   0  0  0  0  0  4  0  0  0  0  0  0
    1.3562    0.0000    0.0000 O   0  0  0  0  0  2  0  0  0  0  0  0
    0.0000   -1.8619    0.0000 O   0  0  0  0  0  1  0  0  0  0  0  0
    5.6698   -2.7736    0.0000 C   0  0  0  0  0  4  0  0  0  0  0  0
    6.3288   -1.6167    0.0000 N   0  0  0  0  0  3  0  0  0  0  0  0
    7.6620   -1.6167    0.0000 O   0  0  0  0  0  2  0  0  0  0  0  0
    6.3288   -3.9229    0.0000 N   0  0  0  0  0  3  0  0  0  0  0  0
  1  2  1  0  0  0  0 
  1  5  1  0  0  0  0 
  2  3  2  0  0  0  0 
  2  9  1  0  0  0  0 
  3  4  1  0  0  0  0 
  4  5  2  0  0  0  0 
  5  6  1  0  0  0  0 
  6  7  2  0  0  0  0 
  6  8  1  0  0  0  0 
  9 10  2  0  0  0  0 
  9 12  1  0  0  0  0 
 10 11  1  0  0  0  0 
M  CHG  1   6   1
M  CHG  1   8  -1
M  END
> <CDK Fingerprint>
EAJBICMAUAgCAcAAAGoqEAAAEMFQAABAIAQAJEAAEGEADAACABgAAAQAAAAg4AAAAgAAQEEAAAAQBIAAAAAQAAAAAAAAAAAAQAyAAAAABwAQAgQAYIEAACAAgCUgAEQAFCAEAAAAIgBwkBKAAACAgAKQAAAAAAAAAAIBIA==

> <ActivityOutcome_CPDBAS_Rat>
inactive

$$$$

  CDK     0721101958

 17 17  0  0  0  0  0  0  0  0999 V2000
    3.0574   -1.9913    0.0000 C   0  0  0  0  0  4  0  0  0  0  0  0
    4.2028   -1.3305    0.0000 C   0  0  0  0  0  4  0  0  0  0  0  0
    4.2028    0.0000    0.0000 O   0  0  0  0  0  2  0  0  0  0  0  0
    5.3571   -1.9913    0.0000 O   0  0  0  0  0  2  0  0  0  0  0  0
    5.3571   -3.3217    0.0000 C   0  0  0  0  0  4  0  0  0  0  0  0
    4.2028   -3.9914    0.0000 C   0  0  0  0  0  4  0  0  0  0  0  0
    4.0707   -5.3130    0.0000 C   0  0  0  0  0  4  0  0  0  0  0  0
    2.7666   -5.5862    0.0000 C   0  0  0  0  0  4  0  0  0  0  0  0
    2.1058   -4.4319    0.0000 C   0  0  0  0  0  4  0  0  0  0  0  0
    2.9957   -3.4451    0.0000 O   0  0  0  0  0  2  0  0  0  0  0  0
    0.7842   -4.2998    0.0000 N   0  0  0  0  0  4  0  0  0  0  0  0
    0.0000   -5.3747    0.0000 O   0  0  0  0  0  2  0  0  0  0  0  0
    0.2379   -3.0838    0.0000 O   0  0  0  0  0  1  0  0  0  0  0  0
    6.5113   -3.9914    0.0000 O   0  0  0  0  0  2  0  0  0  0  0  0
    7.6567   -3.3217    0.0000 C   0  0  0  0  0  4  0  0  0  0  0  0
    7.6567   -1.9913    0.0000 O   0  0  0  0  0  2  0  0  0  0  0  0
    8.8110   -3.9914    0.0000 C   0  0  0  0  0  4  0  0  0  0  0  0
  1  2  1  0  0  0  0 
  2  3  2  0  0  0  0 
  2  4  1  0  0  0  0 
  4  5  1  0  0  0  0 
  5  6  1  0  0  0  0 
  5 14  1  0  0  0  0 
  6  7  2  0  0  0  0 
  6 10  1  0  0  0  0 
  7  8  1  0  0  0  0 
  8  9  2  0  0  0  0 
  9 10  1  0  0  0  0 
  9 11  1  0  0  0  0 
 11 12  2  0  0  0  0 
 11 13  1  0  0  0  0 
 14 15  1  0  0  0  0 
 15 16  2  0  0  0  0 
 15 17  1  0  0  0  0 
M  CHG  1  11   1
M  CHG  1  13  -1
M  END
> <CDK Fingerprint>
AgAAABACASBhAhALgACkAARrIgAAABDDlQBAQIQEAAQAAEBgkIQAAIQQEIEAAABgoEIQAAIAACBAAAAAEASAAAAIAAAAQAlAAAAAAkIMgAAAAQIIEAAEAECAEQAgAIBEIIBEQBQgBACAACIAUJAAAACAgAAC1IBAQBAAIEACoAA=

> <ActivityOutcome_CPDBAS_Rat>
inactive

$$$$

  CDK     0721101958

 17 19  0  0  0  0  0  0  0  0999 V2000
    5.9812   -0.9869    0.0000 C   0  0  0  0  0  4  0  0  0  0  0  0
    6.3932   -2.2569    0.0000 N   0  0  0  0  0  3  0  0  0  0  0  0
    7.6889   -2.5315    0.0000 C   0  0  0  0  0  4  0  0  0  0  0  0
    8.5814   -1.5447    0.0000 C   0  0  0  0  0  4  0  0  0  0  0  0
    8.1695   -0.2746    0.0000 C   0  0  0  0  0  4  0  0  0  0  0  0
    6.8737    0.0000    0.0000 C   0  0  0  0  0  4  0  0  0  0  0  0
    7.8348   -3.8531    0.0000 N   0  0  0  0  0  3  0  0  0  0  0  0
    6.6163   -4.3937    0.0000 C   0  0  0  0  0  4  0  0  0  0  0  0
    5.7238   -3.4068    0.0000 C   0  0  0  0  0  4  0  0  0  0  0  0
    4.4023   -3.5441    0.0000 C   0  0  0  0  0  4  0  0  0  0  0  0
    3.7415   -4.6940    0.0000 C   0  0  0  0  0  4  0  0  0  0  0  0
    2.4371   -4.4194    0.0000 C   0  0  0  0  0  4  0  0  0  0  0  0
    2.2998   -3.0979    0.0000 C   0  0  0  0  0  4  0  0  0  0  0  0
    3.5184   -2.5573    0.0000 O   0  0  0  0  0  2  0  0  0  0  0  0
    1.1499   -2.4285    0.0000 N   0  0  0  0  0  4  0  0  0  0  0  0
    0.0000   -3.0979    0.0000 O   0  0  0  0  0  1  0  0  0  0  0  0
    1.1499   -1.0984    0.0000 O   0  0  0  0  0  2  0  0  0  0  0  0
  1  2  1  0  0  0  0 
  1  6  2  0  0  0  0 
  2  3  1  0  0  0  0 
  2  9  1  0  0  0  0 
  3  4  1  0  0  0  0 
  3  7  2  0  0  0  0 
  4  5  2  0  0  0  0 
  5  6  1  0  0  0  0 
  7  8  1  0  0  0  0 
  8  9  2  0  0  0  0 
  9 10  1  0  0  0  0 
 10 11  2  0  0  0  0 
 10 14  1  0  0  0  0 
 11 12  1  0  0  0  0 
 12 13  2  0  0  0  0 
 13 14  1  0  0  0  0 
 13 15  1  0  0  0  0 
 15 16  1  0  0  0  0 
 15 17  2  0  0  0  0 
M  CHG  1  15   1
M  CHG  1  16  -1
M  END
> <CDK Fingerprint>
JAACeZJ7oSAIly4GltAICkpgICGQmMEQAYhBAAQIBgAAgGIABSKhgJiABABgQgghCAgBCsAABkACAAgABIBQAZAAABQApGAAGUEAyAyABhCAAiGYDCQQ5KAkQGQCgAxgQfQRVCCFBPgAYgBAkIsBSCaUM6KISBAUCAgICwoEYg==

> <ActivityOutcome_CPDBAS_Rat>
active

> <TD50_Rat_mmol>
0.0593

$$$$

  CDK     0721101958

 14 15  0  0  0  0  0  0  0  0999 V2000
    4.5865   -2.4461    0.0000 C   0  0  0  0  0  4  0  0  0  0  0  0
    3.2555   -2.3022    0.0000 C   0  0  0  0  0  4  0  0  0  0  0  0
    2.3652   -3.2915    0.0000 O   0  0  0  0  0  2  0  0  0  0  0  0
    1.1511   -2.7519    0.0000 C   0  0  0  0  0  4  0  0  0  0  0  0
    1.2950   -1.4299    0.0000 N   0  0  0  0  0  3  0  0  0  0  0  0
    2.5900   -1.1511    0.0000 N   0  0  0  0  0  3  0  0  0  0  0  0
    0.0000   -3.4174    0.0000 O   0  0  0  0  0  2  0  0  0  0  0  0
    5.4768   -1.4569    0.0000 O   0  0  0  0  0  2  0  0  0  0  0  0
    6.6908   -1.9965    0.0000 C   0  0  0  0  0  4  0  0  0  0  0  0
    7.8419   -1.3310    0.0000 N   0  0  0  0  0  4  0  0  0  0  0  0
    7.8419    0.0000    0.0000 O   0  0  0  0  0  2  0  0  0  0  0  0
    8.9931   -1.9965    0.0000 O   0  0  0  0  0  1  0  0  0  0  0  0
    6.5469   -3.3184    0.0000 C   0  0  0  0  0  4  0  0  0  0  0  0
    5.2430   -3.5972    0.0000 C   0  0  0  0  0  4  0  0  0  0  0  0
  1  2  1  0  0  0  0 
  1  8  1  0  0  0  0 
  1 14  2  0  0  0  0 
  2  3  1  0  0  0  0 
  2  6  2  0  0  0  0 
  3  4  1  0  0  0  0 
  4  5  2  0  0  0  0 
  4  7  1  0  0  0  0 
  5  6  1  0  0  0  0 
  8  9  1  0  0  0  0 
  9 10  1  0  0  0  0 
  9 13  2  0  0  0  0 
 10 11  2  0  0  0  0 
 10 12  1  0  0  0  0 
 13 14  1  0  0  0  0 
M  CHG  1  10   1
M  CHG  1  12  -1
M  END
> <CDK Fingerprint>
FAGAOI4BIWsIkAoAAMAgB0ogAKAAkMEQAOFBAAwQBAABgOQiZAAAMBiAAABgAAAkIAToaoABAkgASACABIAAYGAAACYAYWJCEAAAQJyAEFgAEgIQAEQAxIAKkCiAgAQgQHwAFCIEgIgMYgBAkIKAgICBAALAAEBAQEAACAYYIA==

> <ActivityOutcome_CPDBAS_Rat>
active

> <TD50_Rat_mmol>
0.0437

$$$$

  CDK     0721101958

 18 19  0  0  0  0  0  0  0  0999 V2000
    0.0000   -3.5790    0.0000 O   0  0  0  0  0  2  0  0  0  0  0  0
    0.9374   -2.6416    0.0000 C   0  0  0  0  0  4  0  0  0  0  0  0
    0.5965   -1.3513    0.0000 C   0  0  0  0  0  4  0  0  0  0  0  0
    2.2399   -2.9094    0.0000 N   0  0  0  0  0  3  0  0  0  0  0  0
    3.1286   -1.9234    0.0000 C   0  0  0  0  0  4  0  0  0  0  0  0
    4.4311   -2.2034    0.0000 C   0  0  0  0  0  4  0  0  0  0  0  0
    5.4172   -1.3147    0.0000 N   0  0  0  0  0  3  0  0  0  0  0  0
    6.5737   -1.9721    0.0000 C   0  0  0  0  0  4  0  0  0  0  0  0
    6.2937   -3.2747    0.0000 N   0  0  0  0  0  3  0  0  0  0  0  0
    4.9789   -3.4207    0.0000 O   0  0  0  0  0  2  0  0  0  0  0  0
    7.7910   -1.4365    0.0000 C   0  0  0  0  0  4  0  0  0  0  0  0
    8.0710   -0.1339    0.0000 C   0  0  0  0  0  4  0  0  0  0  0  0
    9.3857    0.0000    0.0000 C   0  0  0  0  0  4  0  0  0  0  0  0
    9.9335   -1.2173    0.0000 C   0  0  0  0  0  4  0  0  0  0  0  0
    8.9475   -2.1060    0.0000 O   0  0  0  0  0  2  0  0  0  0  0  0
   11.2361   -1.4852    0.0000 N   0  0  0  0  0  4  0  0  0  0  0  0
   12.1734   -0.5478    0.0000 O   0  0  0  0  0  1  0  0  0  0  0  0
   11.5769   -2.7755    0.0000 O   0  0  0  0  0  2  0  0  0  0  0  0
  1  2  2  0  0  0  0 
  2  3  1  0  0  0  0 
  2  4  1  0  0  0  0 
  4  5  1  0  0  0  0 
  5  6  1  0  0  0  0 
  6  7  2  0  0  0  0 
  6 10  1  0  0  0  0 
  7  8  1  0  0  0  0 
  8  9  2  0  0  0  0 
  8 11  1  0  0  0  0 
  9 10  1  0  0  0  0 
 11 12  2  0  0  0  0 
 11 15  1  0  0  0  0 
 12 13  1  0  0  0  0 
 13 14  2  0  0  0  0 
 14 15  1  0  0  0  0 
 14 16  1  0  0  0  0 
 16 17  1  0  0  0  0 
 16 18  2  0  0  0  0 
M  CHG  1  16   1
M  CHG  1  17  -1
M  END
> <CDK Fingerprint>
URI8hoMlIlQUSASY0AAASiChAIAYwTAhgGEAhDCGAQCQcEIEAEAoGcwCICkjACCAIAaiAgASWqAAAJAEgQDQgAAAVgBQQhkYLEBAboKEkAAiRNQGRkv0gRBMIACFBiAA9CCcJE0GqCSiAESQioAIDqAAAtAAACCAMEACAgAD

> <ActivityOutcome_CPDBAS_Rat>
active

> <TD50_Rat_mmol>
0.236

$$$$

  CDK     0721101958

 17 18  0  0  0  0  0  0  0  0999 V2000
   11.1214   -2.0686    0.0000 C   0  0  0  0  0  4  0  0  0  0  0  0
    9.9647   -2.7359    0.0000 C   0  0  0  0  0  4  0  0  0  0  0  0
    9.9647   -4.0704    0.0000 O   0  0  0  0  0  2  0  0  0  0  0  0
    8.8192   -2.0686    0.0000 N   0  0  0  0  0  3  0  0  0  0  0  0
    7.6626   -2.7359    0.0000 C   0  0  0  0  0  4  0  0  0  0  0  0
    7.5292   -4.0593    0.0000 N   0  0  0  0  0  3  0  0  0  0  0  0
    6.2280   -4.3373    0.0000 N   0  0  0  0  0  3  0  0  0  0  0  0
    5.5607   -3.1807    0.0000 C   0  0  0  0  0  4  0  0  0  0  0  0
    6.4504   -2.2020    0.0000 S   0  0  0  0  0  2  0  0  0  0  0  0
    4.2372   -3.0473    0.0000 C   0  0  0  0  0  4  0  0  0  0  0  0
    3.3475   -4.0371    0.0000 C   0  0  0  0  0  4  0  0  0  0  0  0
    2.1353   -3.4921    0.0000 C   0  0  0  0  0  4  0  0  0  0  0  0
    2.2688   -2.1687    0.0000 C   0  0  0  0  0  4  0  0  0  0  0  0
    3.5700   -1.8906    0.0000 O   0  0  0  0  0  2  0  0  0  0  0  0
    1.2901   -1.2790    0.0000 N   0  0  0  0  0  4  0  0  0  0  0  0
    0.0000   -1.6237    0.0000 O   0  0  0  0  0  1  0  0  0  0  0  0
    1.6237    0.0000    0.0000 O   0  0  0  0  0  2  0  0  0  0  0  0
  1  2  1  0  0  0  0 
  2  3  2  0  0  0  0 
  2  4  1  0  0  0  0 
  4  5  1  0  0  0  0 
  5  6  2  0  0  0  0 
  5  9  1  0  0  0  0 
  6  7  1  0  0  0  0 
  7  8  2  0  0  0  0 
  8  9  1  0  0  0  0 
  8 10  1  0  0  0  0 
 10 11  2  0  0  0  0 
 10 14  1  0  0  0  0 
 11 12  1  0  0  0  0 
 12 13  2  0  0  0  0 
 13 14  1  0  0  0  0 
 13 15  1  0  0  0  0 
 15 16  1  0  0  0  0 
 15 17  2  0  0  0  0 
M  CHG  1  15   1
M  CHG  1  16  -1
M  END
> <CDK Fingerprint>
IAAAADmKCSdjQVAIAIDoICBKJAQABbrBcSjEQYCtoAxAAIFgIBQAAXCSgAAAcQOKJILE4EYIgAPAAiwAwASCAIFQADIicAQAQxAAAERNxKUQAI4CEABEAMTAJqAiAICNIkBUQBQgBIiJFHolYJCmAYCMgABC0ADgIhAIAcKCogA=

> <ActivityOutcome_CPDBAS_Rat>
active

> <TD50_Rat_mmol>
0.0348

$$$$

  CDK     0721101958

 13 14  0  0  0  0  0  0  0  0999 V2000
    5.5934   -1.4390    0.0000 C   0  0  0  0  0  4  0  0  0  0  0  0
    5.8719   -0.1393    0.0000 N   0  0  0  0  0  3  0  0  0  0  0  0
    7.1948    0.0000    0.0000 C   0  0  0  0  0  4  0  0  0  0  0  0
    7.7363   -1.2146    0.0000 S   0  0  0  0  0  2  0  0  0  0  0  0
    6.7461   -2.1043    0.0000 C   0  0  0  0  0  4  0  0  0  0  0  0
    4.3788   -1.9805    0.0000 C   0  0  0  0  0  4  0  0  0  0  0  0
    4.1080   -3.2802    0.0000 C   0  0  0  0  0  4  0  0  0  0  0  0
    2.7851   -3.4195    0.0000 C   0  0  0  0  0  4  0  0  0  0  0  0
    2.2435   -2.2049    0.0000 C   0  0  0  0  0  4  0  0  0  0  0  0
    3.2261   -1.3152    0.0000 O   0  0  0  0  0  2  0  0  0  0  0  0
    0.9438   -1.9263    0.0000 N   0  0  0  0  0  4  0  0  0  0  0  0
    0.0000   -2.8702    0.0000 O   0  0  0  0  0  1  0  0  0  0  0  0
    0.5957   -0.6421    0.0000 O   0  0  0  0  0  2  0  0  0  0  0  0
  1  2  1  0  0  0  0 
  1  5  2  0  0  0  0 
  1  6  1  0  0  0  0 
  2  3  2  0  0  0  0 
  3  4  1  0  0  0  0 
  4  5  1  0  0  0  0 
  6  7  2  0  0  0  0 
  6 10  1  0  0  0  0 
  7  8  1  0  0  0  0 
  8  9  2  0  0  0  0 
  9 10  1  0  0  0  0 
  9 11  1  0  0  0  0 
 11 12  1  0  0  0  0 
 11 13  2  0  0  0  0 
M  CHG  1  11   1
M  CHG  1  12  -1
M  END
> <CDK Fingerprint>
Agb4wgMjYAAQCAWQkAABSqAigJEQwRABgEEELEAGgACRYIAGAARAGJQAAmAAAKQAAQACAAQGQAKAAAAGoQABRAIAVAQAEAIQAABALIAAEDACBZACBADEoAAgIIiABGAAVAIVIIUAeCByAECwigAIAMAAAoAAAAAICAACAgCA

> <ActivityOutcome_CPDBAS_Rat>
active

> <TD50_Rat_mmol>
0.0391

$$$$

  CDK     0721101958

 17 18  0  0  0  0  0  0  0  0999 V2000
    1.2652   -1.2985    0.0000 N   0  0  0  0  0  4  0  0  0  0  0  0
    0.0000   -1.7091    0.0000 O   0  0  0  0  0  1  0  0  0  0  0  0
    1.5426    0.0000    0.0000 O   0  0  0  0  0  2  0  0  0  0  0  0
    2.2529   -2.1863    0.0000 C   0  0  0  0  0  4  0  0  0  0  0  0
    3.5514   -1.9089    0.0000 O   0  0  0  0  0  2  0  0  0  0  0  0
    4.2173   -3.0631    0.0000 C   0  0  0  0  0  4  0  0  0  0  0  0
    3.3294   -4.0508    0.0000 C   0  0  0  0  0  4  0  0  0  0  0  0
    2.1086   -3.5070    0.0000 C   0  0  0  0  0  4  0  0  0  0  0  0
    5.5380   -3.1963    0.0000 C   0  0  0  0  0  4  0  0  0  0  0  0
    6.4258   -2.2085    0.0000 N   0  0  0  0  0  3  0  0  0  0  0  0
    7.6466   -2.7523    0.0000 C   0  0  0  0  0  4  0  0  0  0  0  0
    7.5023   -4.0730    0.0000 S   0  0  0  0  0  2  0  0  0  0  0  0
    6.2039   -4.3505    0.0000 C   0  0  0  0  0  4  0  0  0  0  0  0
    8.8008   -2.0865    0.0000 N   0  0  0  0  0  3  0  0  0  0  0  0
    9.9439   -2.7523    0.0000 C   0  0  0  0  0  4  0  0  0  0  0  0
    9.9439   -4.0841    0.0000 O   0  0  0  0  0  2  0  0  0  0  0  0
   11.0981   -2.0865    0.0000 C   0  0  0  0  0  4  0  0  0  0  0  0
  1  2  1  0  0  0  0 
  1  3  2  0  0  0  0 
  1  4  1  0  0  0  0 
  4  5  1  0  0  0  0 
  4  8  2  0  0  0  0 
  5  6  1  0  0  0  0 
  6  7  2  0  0  0  0 
  6  9  1  0  0  0  0 
  7  8  1  0  0  0  0 
  9 10  1  0  0  0  0 
  9 13  2  0  0  0  0 
 10 11  2  0  0  0  0 
 11 12  1  0  0  0  0 
 11 14  1  0  0  0  0 
 12 13  1  0  0  0  0 
 14 15  1  0  0  0  0 
 15 16  2  0  0  0  0 
 15 17  1  0  0  0  0 
M  CHG  1   1   1
M  CHG  1   2  -1
M  END
> <CDK Fingerprint>
Jgb4wgsnYgBSCCWQsAABSqimgJEQwRABgEEELEAmgQCRZIAmAARAGJQAEmEAAKQARQACQAQGwYKAAIAPoYCBVAIKVAQEEgIQAIDALIzAEDACRZALBAjUoACgIIiIhHABVIIVIKUA+CByAECwqgIIANBIQtEAEAlIGAAWAgCH

> <ActivityOutcome_CPDBAS_Rat>
active

> <TD50_Rat_mmol>
0.0703

$$$$

  CDK     0721101958

 16 17  0  0  0  0  0  0  0  0999 V2000
   10.9589   -1.9945    0.0000 O   0  0  0  0  0  1  0  0  0  0  0  0
    9.8082   -1.3260    0.0000 N   0  0  0  0  0  4  0  0  0  0  0  0
    9.8082    0.0000    0.0000 O   0  0  0  0  0  2  0  0  0  0  0  0
    8.6575   -1.9945    0.0000 C   0  0  0  0  0  4  0  0  0  0  0  0
    8.5151   -3.3205    0.0000 C   0  0  0  0  0  4  0  0  0  0  0  0
    7.2110   -3.5945    0.0000 C   0  0  0  0  0  4  0  0  0  0  0  0
    6.5534   -2.4438    0.0000 C   0  0  0  0  0  4  0  0  0  0  0  0
    7.4411   -1.4575    0.0000 O   0  0  0  0  0  2  0  0  0  0  0  0
    5.2274   -2.3014    0.0000 C   0  0  0  0  0  4  0  0  0  0  0  0
    4.3397   -3.2877    0.0000 C   0  0  0  0  0  4  0  0  0  0  0  0
    3.1233   -2.7507    0.0000 S   0  0  0  0  0  2  0  0  0  0  0  0
    3.2658   -1.4247    0.0000 C   0  0  0  0  0  4  0  0  0  0  0  0
    4.5589   -1.1507    0.0000 N   0  0  0  0  0  3  0  0  0  0  0  0
    2.2795   -0.5370    0.0000 N   0  0  0  0  0  3  0  0  0  0  0  0
    1.0301   -1.0192    0.0000 C   0  0  0  0  0  4  0  0  0  0  0  0
    0.0000   -0.1753    0.0000 O   0  0  0  0  0  2  0  0  0  0  0  0
  1  2  1  0  0  0  0 
  2  3  2  0  0  0  0 
  2  4  1  0  0  0  0 
  4  5  2  0  0  0  0 
  4  8  1  0  0  0  0 
  5  6  1  0  0  0  0 
  6  7  2  0  0  0  0 
  7  8  1  0  0  0  0 
  7  9  1  0  0  0  0 
  9 10  2  0  0  0  0 
  9 13  1  0  0  0  0 
 10 11  1  0  0  0  0 
 11 12  1  0  0  0  0 
 12 13  2  0  0  0  0 
 12 14  1  0  0  0  0 
 14 15  1  0  0  0  0 
 15 16  2  0  0  0  0 
M  CHG  1   1  -1
M  CHG  1   2   1
M  END
> <CDK Fingerprint>
Jgb4wgsnYAASCAWQsAABSqCigJEQwRABgEEELEAGgQCRZIAmAARAGJQAEmEAAKQARQACQAQGwYKAAIAPoYCBVAICVAQEEgIQAIDALIxAEDACBZADBAjUoACgIIiIhGABVAIVIKUA+CByAECwigIIAMBIQsEAAAlIGAAWAgCH

> <ActivityOutcome_CPDBAS_Rat>
active

> <TD50_Rat_mmol>
0.0178

$$$$

  CDK     0721101958

 22 23  0  0  0  0  0  0  0  0999 V2000
    7.6669   -5.3190    0.0000 C   0  0  0  0  0  4  0  0  0  0  0  0
    6.5208   -5.9866    0.0000 N   0  0  0  0  0  3  0  0  0  0  0  0
    5.3635   -5.3190    0.0000 C   0  0  0  0  0  4  0  0  0  0  0  0
    5.3635   -3.9948    0.0000 N   0  0  0  0  0  3  0  0  0  0  0  0
    6.5208   -3.3271    0.0000 C   0  0  0  0  0  4  0  0  0  0  0  0
    7.6669   -3.9948    0.0000 N   0  0  0  0  0  3  0  0  0  0  0  0
    6.5208   -1.9918    0.0000 N   0  0  0  0  0  3  0  0  0  0  0  0
    7.6669   -1.3353    0.0000 C   0  0  0  0  0  4  0  0  0  0  0  0
    8.8242   -1.9918    0.0000 C   0  0  0  0  0  4  0  0  0  0  0  0
    7.6669    0.0000    0.0000 O   0  0  0  0  0  2  0  0  0  0  0  0
    4.2173   -5.9866    0.0000 C   0  0  0  0  0  4  0  0  0  0  0  0
    4.0727   -7.3108    0.0000 C   0  0  0  0  0  4  0  0  0  0  0  0
    2.7708   -7.5890    0.0000 C   0  0  0  0  0  4  0  0  0  0  0  0
    2.1031   -6.4317    0.0000 C   0  0  0  0  0  4  0  0  0  0  0  0
    2.9933   -5.4525    0.0000 O   0  0  0  0  0  2  0  0  0  0  0  0
    0.7789   -6.2982    0.0000 N   0  0  0  0  0  4  0  0  0  0  0  0
    0.0000   -7.3776    0.0000 O   0  0  0  0  0  2  0  0  0  0  0  0
    0.2448   -5.0853    0.0000 O   0  0  0  0  0  1  0  0  0  0  0  0
    8.8242   -5.9866    0.0000 N   0  0  0  0  0  3  0  0  0  0  0  0
    9.9703   -5.3190    0.0000 C   0  0  0  0  0  4  0  0  0  0  0  0
   11.1276   -5.9866    0.0000 C   0  0  0  0  0  4  0  0  0  0  0  0
    9.9703   -3.9948    0.0000 O   0  0  0  0  0  2  0  0  0  0  0  0
  1  2  2  0  0  0  0 
  1  6  1  0  0  0  0 
  1 19  1  0  0  0  0 
  2  3  1  0  0  0  0 
  3  4  2  0  0  0  0 
  3 11  1  0  0  0  0 
  4  5  1  0  0  0  0 
  5  6  2  0  0  0  0 
  5  7  1  0  0  0  0 
  7  8  1  0  0  0  0 
  8  9  1  0  0  0  0 
  8 10  2  0  0  0  0 
 11 12  2  0  0  0  0 
 11 15  1  0  0  0  0 
 12 13  1  0  0  0  0 
 13 14  2  0  0  0  0 
 14 15  1  0  0  0  0 
 14 16  1  0  0  0  0 
 16 17  2  0  0  0  0 
 16 18  1  0  0  0  0 
 19 20  1  0  0  0  0 
 20 21  1  0  0  0  0 
 20 22  2  0  0  0  0 
M  CHG  1  16   1
M  CHG  1  18  -1
M  END
> <CDK Fingerprint>
ICQCOIpLpyJBUIgAkLEIAEogoACAEMEUEIBBAASAJgMAgGCABQIBAJKAAAAhABQgAAADEkAAAkAQAACAjIDAgAACARQEhAAAUAAAwAyIgBIQAkAYFSQI5IAAhCAAgASgAFaAVCA1NCgAIgBQlIoACACQAgPRGBAJUBAIDgIAIw==

> <ActivityOutcome_CPDBAS_Rat>
active

> <TD50_Rat_mmol>
0.046

$$$$

  CDK     0721101958

 11 11  0  0  0  0  0  0  0  0999 V2000
    1.9968   -4.6079    0.0000 N   0  0  0  0  0  3  0  0  0  0  0  0
    2.6577   -3.4583    0.0000 C   0  0  0  0  0  4  0  0  0  0  0  0
    1.9968   -2.3039    0.0000 C   0  0  0  0  0  4  0  0  0  0  0  0
    2.6577   -1.1543    0.0000 C   0  0  0  0  0  4  0  0  0  0  0  0
    3.9889   -1.1543    0.0000 C   0  0  0  0  0  4  0  0  0  0  0  0
    4.6544   -2.3039    0.0000 C   0  0  0  0  0  4  0  0  0  0  0  0
    3.9889   -3.4583    0.0000 C   0  0  0  0  0  4  0  0  0  0  0  0
    4.6544    0.0000    0.0000 N   0  0  0  0  0  3  0  0  0  0  0  0
    0.6656   -2.3039    0.0000 N   0  0  0  0  0  4  0  0  0  0  0  0
    0.0000   -3.4583    0.0000 O   0  0  0  0  0  2  0  0  0  0  0  0
    0.0000   -1.1543    0.0000 O   0  0  0  0  0  1  0  0  0  0  0  0
  1  2  1  0  0  0  0 
  2  3  2  0  0  0  0 
  2  7  1  0  0  0  0 
  3  4  1  0  0  0  0 
  3  9  1  0  0  0  0 
  4  5  2  0  0  0  0 
  5  6  1  0  0  0  0 
  5  8  1  0  0  0  0 
  6  7  2  0  0  0  0 
  9 10  2  0  0  0  0 
  9 11  1  0  0  0  0 
M  CHG  1   9   1
M  CHG  1  11  -1
M  END
> <CDK Fingerprint>
EAIAACgAgAgAAAAEAAgAAAAAGEAQAAAAAAQABgAAAGABBAAAAAAAACAAAAAgAAAAAgAAAEAEAAAAAAAAAAAAABAAQAAAAAAAAAiAAAAAAAAAACAAAAAAAAAQAAAgAAQAACAAAABAIAIAAAAAAAAAAIAAABAAAAAAAAIwAA==

> <ActivityOutcome_CPDBAS_Rat>
inactive

$$$$

  CDK     0721101958

 11 11  0  0  0  0  0  0  0  0999 V2000
    0.0000   -3.4525    0.0000 O   0  0  0  0  0  2  0  0  0  0  0  0
    0.6642   -2.3037    0.0000 N   0  0  0  0  0  4  0  0  0  0  0  0
    1.9925   -2.3037    0.0000 C   0  0  0  0  0  4  0  0  0  0  0  0
    2.6567   -1.1488    0.0000 C   0  0  0  0  0  4  0  0  0  0  0  0
    3.9910   -1.1488    0.0000 C   0  0  0  0  0  4  0  0  0  0  0  0
    4.6552   -2.3037    0.0000 C   0  0  0  0  0  4  0  0  0  0  0  0
    3.9910   -3.4525    0.0000 C   0  0  0  0  0  4  0  0  0  0  0  0
    2.6567   -3.4525    0.0000 C   0  0  0  0  0  4  0  0  0  0  0  0
    5.9835   -2.3037    0.0000 N   0  0  0  0  0  3  0  0  0  0  0  0
    4.6552    0.0000    0.0000 N   0  0  0  0  0  3  0  0  0  0  0  0
    0.0000   -1.1488    0.0000 O   0  0  0  0  0  1  0  0  0  0  0  0
  1  2  2  0  0  0  0 
  2  3  1  0  0  0  0 
  2 11  1  0  0  0  0 
  3  4  2  0  0  0  0 
  3  8  1  0  0  0  0 
  4  5  1  0  0  0  0 
  5  6  2  0  0  0  0 
  5 10  1  0  0  0  0 
  6  7  1  0  0  0  0 
  6  9  1  0  0  0  0 
  7  8  2  0  0  0  0 
M  CHG  1   2   1
M  CHG  1  11  -1
M  END
> <CDK Fingerprint>
EAIAACgAAAgAAAAEAAgAAAAAGEAQAAEAAAQABgAAAGABBAAAAAAAAAAAAAAgAAAAAgAAAEAEAAAAAAAAAAAAAAAAQAAAAAAAAAiAAAAAAAAAACAAAAAAAAAQAAAgAAQAACAAAABAIAIAEAAAAAAAAIAAABAAAAAAAAIQAA==

> <ActivityOutcome_CPDBAS_Rat>
inactive

$$$$

  CDK     0721101958

 11 11  0  0  0  0  0  0  0  0999 V2000
    0.0000   -3.4525    0.0000 O   0  0  0  0  0  2  0  0  0  0  0  0
    0.6642   -2.3037    0.0000 N   0  0  0  0  0  4  0  0  0  0  0  0
    1.9925   -2.3037    0.0000 C   0  0  0  0  0  4  0  0  0  0  0  0
    2.6567   -1.1488    0.0000 C   0  0  0  0  0  4  0  0  0  0  0  0
    3.9910   -1.1488    0.0000 C   0  0  0  0  0  4  0  0  0  0  0  0
    4.6552   -2.3037    0.0000 C   0  0  0  0  0  4  0  0  0  0  0  0
    3.9910   -3.4525    0.0000 C   0  0  0  0  0  4  0  0  0  0  0  0
    2.6567   -3.4525    0.0000 C   0  0  0  0  0  4  0  0  0  0  0  0
    5.9835   -2.3037    0.0000 C   0  0  0  0  0  4  0  0  0  0  0  0
    4.6552    0.0000    0.0000 N   0  0  0  0  0  3  0  0  0  0  0  0
    0.0000   -1.1488    0.0000 O   0  0  0  0  0  1  0  0  0  0  0  0
  1  2  2  0  0  0  0 
  2  3  1  0  0  0  0 
  2 11  1  0  0  0  0 
  3  4  2  0  0  0  0 
  3  8  1  0  0  0  0 
  4  5  1  0  0  0  0 
  5  6  2  0  0  0  0 
  5 10  1  0  0  0  0 
  6  7  1  0  0  0  0 
  6  9  1  0  0  0  0 
  7  8  2  0  0  0  0 
M  CHG  1   2   1
M  CHG  1  11  -1
M  END
> <CDK Fingerprint>
EAIAACIAAAgAAAAEAAgAAAAAGEEAAABAAAQABgAAAGABBAAAAAAAAAAAAABgAAAAAgAAAEAEAAAAAAAAAAQAAAAAQAAAAAAAAAiAAAAAAAAAACAAAIAAAAAQgAAgAAQAQCAAAABAIAJAgAAAAAAAAIAAABAAAAAAAAIQAA==

> <ActivityOutcome_CPDBAS_Rat>
inactive

$$$$

  CDK     0721101958

 15 17  0  0  0  0  0  0  0  0999 V2000
    4.2842    0.0000    0.0000 O   0  0  0  0  0  2  0  0  0  0  0  0
    4.2842   -1.3283    0.0000 N   0  0  0  0  0  4  0  0  0  0  0  0
    3.1294   -1.9925    0.0000 C   0  0  0  0  0  4  0  0  0  0  0  0
    1.9805   -1.3283    0.0000 C   0  0  0  0  0  4  0  0  0  0  0  0
    0.8257   -1.9925    0.0000 C   0  0  0  0  0  4  0  0  0  0  0  0
    0.8257   -3.3268    0.0000 C   0  0  0  0  0  4  0  0  0  0  0  0
    1.9805   -3.9910    0.0000 C   0  0  0  0  0  4  0  0  0  0  0  0
    3.1294   -3.3268    0.0000 C   0  0  0  0  0  4  0  0  0  0  0  0
    4.2842   -3.9910    0.0000 C   0  0  0  0  0  4  0  0  0  0  0  0
    4.2842   -5.3193    0.0000 C   0  0  0  0  0  4  0  0  0  0  0  0
    3.1294   -5.9835    0.0000 C   0  0  0  0  0  4  0  0  0  0  0  0
    1.9805   -5.3193    0.0000 C   0  0  0  0  0  4  0  0  0  0  0  0
    0.6642   -5.5168    0.0000 C   0  0  0  0  0  4  0  0  0  0  0  0
    0.0000   -4.3620    0.0000 C   0  0  0  0  0  4  0  0  0  0  0  0
    5.4330   -1.9925    0.0000 O   0  0  0  0  0  1  0  0  0  0  0  0
  1  2  2  0  0  0  0 
  2  3  1  0  0  0  0 
  2 15  1  0  0  0  0 
  3  4  2  0  0  0  0 
  3  8  1  0  0  0  0 
  4  5  1  0  0  0  0 
  5  6  2  0  0  0  0 
  6  7  1  0  0  0  0 
  6 14  1  0  0  0  0 
  7  8  2  0  0  0  0 
  7 12  1  0  0  0  0 
  8  9  1  0  0  0  0 
  9 10  2  0  0  0  0 
 10 11  1  0  0  0  0 
 11 12  2  0  0  0  0 
 12 13  1  0  0  0  0 
 13 14  1  0  0  0  0 
M  CHG  1   2   1
M  CHG  1  15  -1
M  END
> <CDK Fingerprint>
QBACAAAiAAAYAABAAQAIAAAAABhBAAAAQAAEAAYIABBgAAQAAAAAAAAIAAAAMBAAjAIAAABCBAAAQIAIAAAECAEAAIAABAAAAQAAgAAAIASABAAAAADAAAAQEIAAIAgEAEAgAAAAQCAiQJAEAAAAHCCAAAAEQAAAAAADEAA=

> <ActivityOutcome_CPDBAS_Rat>
active

> <TD50_Rat_mmol>
0.0435

$$$$

  CDK     0721101958

 10 10  0  0  0  0  0  0  0  0999 V2000
    0.0000   -2.3031    0.0000 O   0  0  0  0  0  2  0  0  0  0  0  0
    0.6640   -1.1546    0.0000 N   0  0  0  0  0  4  0  0  0  0  0  0
    1.9921   -1.1546    0.0000 C   0  0  0  0  0  4  0  0  0  0  0  0
    2.6561    0.0000    0.0000 C   0  0  0  0  0  4  0  0  0  0  0  0
    3.9901    0.0000    0.0000 C   0  0  0  0  0  4  0  0  0  0  0  0
    4.6542   -1.1546    0.0000 C   0  0  0  0  0  4  0  0  0  0  0  0
    3.9901   -2.3031    0.0000 C   0  0  0  0  0  4  0  0  0  0  0  0
    2.6561   -2.3031    0.0000 C   0  0  0  0  0  4  0  0  0  0  0  0
    5.9822   -1.1546    0.0000 N   0  0  0  0  0  3  0  0  0  0  0  0
    0.0000    0.0000    0.0000 O   0  0  0  0  0  1  0  0  0  0  0  0
  1  2  2  0  0  0  0 
  2  3  1  0  0  0  0 
  2 10  1  0  0  0  0 
  3  4  2  0  0  0  0 
  3  8  1  0  0  0  0 
  4  5  1  0  0  0  0 
  5  6  2  0  0  0  0 
  6  7  1  0  0  0  0 
  6  9  1  0  0  0  0 
  7  8  2  0  0  0  0 
M  CHG  1   2   1
M  CHG  1  10  -1
M  END
> <CDK Fingerprint>
EAIAACAAAAgAAAAAAAgAAAAAGEAQAAEAAAQABgAAAGAABAAAAAAAAAAAAAAAAAAAAgAAAEAEAAAAAAAAAAAAAAAAAAAAAAAAAACAAAAAAAAAAAAAAAAAAAAQAAAgAAQAACAAAABAIAIAEAAAAAAAAIAAAAAAAAAAAAIQAA==

> <ActivityOutcome_CPDBAS_Rat>
inactive

$$$$

  CDK     0721101958

 11 11  0  0  0  0  0  0  0  0999 V2000
    1.9971    0.0000    0.0000 C   0  0  0  0  0  4  0  0  0  0  0  0
    2.6581   -1.1545    0.0000 O   0  0  0  0  0  2  0  0  0  0  0  0
    1.9971   -2.3043    0.0000 C   0  0  0  0  0  4  0  0  0  0  0  0
    2.6581   -3.4588    0.0000 C   0  0  0  0  0  4  0  0  0  0  0  0
    1.9971   -4.6086    0.0000 C   0  0  0  0  0  4  0  0  0  0  0  0
    0.6657   -4.6086    0.0000 C   0  0  0  0  0  4  0  0  0  0  0  0
    0.0000   -3.4588    0.0000 C   0  0  0  0  0  4  0  0  0  0  0  0
    0.6657   -2.3043    0.0000 C   0  0  0  0  0  4  0  0  0  0  0  0
    3.9895   -3.4588    0.0000 N   0  0  0  0  0  4  0  0  0  0  0  0
    4.6552   -2.3043    0.0000 O   0  0  0  0  0  2  0  0  0  0  0  0
    4.6552   -4.6086    0.0000 O   0  0  0  0  0  1  0  0  0  0  0  0
  1  2  1  0  0  0  0 
  2  3  1  0  0  0  0 
  3  4  2  0  0  0  0 
  3  8  1  0  0  0  0 
  4  5  1  0  0  0  0 
  4  9  1  0  0  0  0 
  5  6  2  0  0  0  0 
  6  7  1  0  0  0  0 
  7  8  2  0  0  0  0 
  9 10  2  0  0  0  0 
  9 11  1  0  0  0  0 
M  CHG  1   9   1
M  CHG  1  11  -1
M  END
> <CDK Fingerprint>
EAIAACAAQAoAEAAAAAgAAAAAGECAAAAAAAQABgAAAmEABAAACAAAACAAAAAAAAAgAgAAAEAEAIAAAAAAAAoQABAAAACAAAAEAACAgAIAAAAAAAAAAAAAAAAQAAAgAAQAACAgIABAIAIAAAAAAAAAAIAAAAAAAAAAACIwAA==

> <ActivityOutcome_CPDBAS_Rat>
active

> <TD50_Rat_mmol>
0.102

$$$$

  CDK     0721101958

 13 13  0  0  0  0  0  0  0  0999 V2000
    0.0000   -3.4590    0.0000 O   0  0  0  0  0  2  0  0  0  0  0  0
    0.6652   -2.3082    0.0000 N   0  0  0  0  0  4  0  0  0  0  0  0
    1.9956   -2.3082    0.0000 C   0  0  0  0  0  4  0  0  0  0  0  0
    2.6607   -1.1574    0.0000 C   0  0  0  0  0  4  0  0  0  0  0  0
    3.9911   -1.1574    0.0000 C   0  0  0  0  0  4  0  0  0  0  0  0
    4.6563   -2.3082    0.0000 C   0  0  0  0  0  4  0  0  0  0  0  0
    3.9911   -3.4590    0.0000 C   0  0  0  0  0  4  0  0  0  0  0  0
    2.6607   -3.4590    0.0000 C   0  0  0  0  0  4  0  0  0  0  0  0
    5.9867   -2.3082    0.0000 C   0  0  0  0  0  4  0  0  0  0  0  0
    6.6519   -3.4590    0.0000 O   0  0  0  0  0  2  0  0  0  0  0  0
    6.6519   -1.1574    0.0000 O   0  0  0  0  0  2  0  0  0  0  0  0
    4.6563    0.0000    0.0000 N   0  0  0  0  0  3  0  0  0  0  0  0
    0.0000   -1.1574    0.0000 O   0  0  0  0  0  1  0  0  0  0  0  0
  1  2  2  0  0  0  0 
  2  3  1  0  0  0  0 
  2 13  1  0  0  0  0 
  3  4  2  0  0  0  0 
  3  8  1  0  0  0  0 
  4  5  1  0  0  0  0 
  5  6  2  0  0  0  0 
  5 12  1  0  0  0  0 
  6  7  1  0  0  0  0 
  6  9  1  0  0  0  0 
  7  8  2  0  0  0  0 
  9 10  2  0  0  0  0 
  9 11  1  0  0  0  0 
M  CHG  1   2   1
M  CHG  1  13  -1
M  END
> <CDK Fingerprint>
AIAQAgAAIgCACgAAABQACAAAAAAYQQAAAEAABAAGQAAAaAEEAAQAAAAAAAAAAGBEAAACAAAgQQQAABAAAAAABAAAAABAAAAAAAAACIAAAAAAAAAAIAAAgBAAABCAACAARABAIAQAgEAgAkCAAAgAgAAAgHAIUCABAAAAAhAA

> <ActivityOutcome_CPDBAS_Rat>
inactive

$$$$

  CDK     0721101958

  9  9  0  0  0  0  0  0  0  0999 V2000
    0.0000   -2.3037    0.0000 O   0  0  0  0  0  2  0  0  0  0  0  0
    0.6655   -1.1542    0.0000 N   0  0  0  0  0  4  0  0  0  0  0  0
    1.9965   -1.1542    0.0000 C   0  0  0  0  0  4  0  0  0  0  0  0
    2.6574    0.0000    0.0000 C   0  0  0  0  0  4  0  0  0  0  0  0
    3.9884    0.0000    0.0000 C   0  0  0  0  0  4  0  0  0  0  0  0
    4.6539   -1.1542    0.0000 C   0  0  0  0  0  4  0  0  0  0  0  0
    3.9884   -2.3037    0.0000 C   0  0  0  0  0  4  0  0  0  0  0  0
    2.6574   -2.3037    0.0000 C   0  0  0  0  0  4  0  0  0  0  0  0
    0.0000    0.0000    0.0000 O   0  0  0  0  0  1  0  0  0  0  0  0
  1  2  2  0  0  0  0 
  2  3  1  0  0  0  0 
  2  9  1  0  0  0  0 
  3  4  2  0  0  0  0 
  3  8  1  0  0  0  0 
  4  5  1  0  0  0  0 
  5  6  2  0  0  0  0 
  6  7  1  0  0  0  0 
  7  8  2  0  0  0  0 
M  CHG  1   2   1
M  CHG  1   9  -1
M  END
> <CDK Fingerprint>
EAIAACAAAAgAAAAAAAgAAAAAGEAAAAAAAAQABgAAAGAABAAAAAAAAAAAAAAAAAAAAgAAAEAEAAAAAAAAAAAAAAAAAAAAAAAAAACAAAAAAAAAAAAAAAAAAAAQAAAgAAQAACAAAABAIAIAAAAAAAAAAIAAAAAAAAAAAAIQAA==

> <ActivityOutcome_CPDBAS_Rat>
active

> <TD50_Rat_mmol>
0.207

$$$$

  CDK     0721101958

 12 13  0  0  0  0  0  0  0  0999 V2000
    0.0000   -3.2909    0.0000 O   0  0  0  0  0  2  0  0  0  0  0  0
    0.6643   -2.1391    0.0000 N   0  0  0  0  0  4  0  0  0  0  0  0
    1.9928   -2.1391    0.0000 C   0  0  0  0  0  4  0  0  0  0  0  0
    2.6571   -0.9873    0.0000 C   0  0  0  0  0  4  0  0  0  0  0  0
    3.9918   -0.9873    0.0000 C   0  0  0  0  0  4  0  0  0  0  0  0
    4.6561   -2.1391    0.0000 C   0  0  0  0  0  4  0  0  0  0  0  0
    3.9918   -3.2909    0.0000 C   0  0  0  0  0  4  0  0  0  0  0  0
    2.6571   -3.2909    0.0000 C   0  0  0  0  0  4  0  0  0  0  0  0
    5.9542   -1.8649    0.0000 N   0  0  0  0  0  3  0  0  0  0  0  0
    6.0943   -0.5424    0.0000 C   0  0  0  0  0  4  0  0  0  0  0  0
    4.8816    0.0000    0.0000 N   0  0  0  0  0  3  0  0  0  0  0  0
    0.0000   -0.9873    0.0000 O   0  0  0  0  0  1  0  0  0  0  0  0
  1  2  2  0  0  0  0 
  2  3  1  0  0  0  0 
  2 12  1  0  0  0  0 
  3  4  2  0  0  0  0 
  3  8  1  0  0  0  0 
  4  5  1  0  0  0  0 
  5  6  2  0  0  0  0 
  5 11  1  0  0  0  0 
  6  7  1  0  0  0  0 
  6  9  1  0  0  0  0 
  7  8  2  0  0  0  0 
  9 10  1  0  0  0  0 
 10 11  2  0  0  0  0 
M  CHG  1   2   1
M  CHG  1  12  -1
M  END
> <CDK Fingerprint>
AhCSIgAgABAsQAQEAAAIAAAAABhAAAQAAAAECgYAAABgAAYAIACAQAQAACAAIAAAAAIgAADBBgAAAIAEAAEAAAAAACAAAAAABCAAwAAAAAAAiAAAACAAIAAAGAGAIEAEEgAgCABBRCACAAABABAEABCAAAAKAAAAgAACkEI=

> <ActivityOutcome_CPDBAS_Rat>
inactive

$$$$

  CDK     0721101958

 12 12  0  0  0  0  0  0  0  0999 V2000
    0.0000    0.0000    0.0000 O   0  0  0  0  0  2  0  0  0  0  0  0
    0.6654   -1.1511    0.0000 C   0  0  0  0  0  4  0  0  0  0  0  0
    0.0000   -2.3023    0.0000 O   0  0  0  0  0  2  0  0  0  0  0  0
    1.9962   -1.1511    0.0000 C   0  0  0  0  0  4  0  0  0  0  0  0
    2.6616    0.0000    0.0000 C   0  0  0  0  0  4  0  0  0  0  0  0
    3.9924    0.0000    0.0000 C   0  0  0  0  0  4  0  0  0  0  0  0
    4.6578   -1.1511    0.0000 C   0  0  0  0  0  4  0  0  0  0  0  0
    3.9924   -2.3023    0.0000 C   0  0  0  0  0  4  0  0  0  0  0  0
    2.6616   -2.3023    0.0000 C   0  0  0  0  0  4  0  0  0  0  0  0
    5.9885   -1.1511    0.0000 N   0  0  0  0  0  4  0  0  0  0  0  0
    6.6539    0.0000    0.0000 O   0  0  0  0  0  2  0  0  0  0  0  0
    6.6539   -2.3023    0.0000 O   0  0  0  0  0  1  0  0  0  0  0  0
  1  2  1  0  0  0  0 
  2  3  2  0  0  0  0 
  2  4  1  0  0  0  0 
  4  5  2  0  0  0  0 
  4  9  1  0  0  0  0 
  5  6  1  0  0  0  0 
  6  7  2  0  0  0  0 
  7  8  1  0  0  0  0 
  7 10  1  0  0  0  0 
  8  9  2  0  0  0  0 
 10 11  2  0  0  0  0 
 10 12  1  0  0  0  0 
M  CHG  1  10   1
M  CHG  1  12  -1
M  END
> <CDK Fingerprint>
EAIAACAAgAoAAAAQAAgAAAAAGEEAAABAAAQABgAAAGgABAAEAAAAAAAAAAAgRAAAAgAAIEEEAAAQAAAAAAQAAAAAAAAAAAAAAACAAAAAAAAAAAAAAIAQAAAQgAAgAEQAQCAEAIBAIAJAgAAIAIAAAIBQCEAAAQAAAAIQAA==

> <ActivityOutcome_CPDBAS_Rat>
active

> <TD50_Rat_mmol>
1.72

$$$$

  CDK     0721101958

  7  6  0  0  0  0  0  0  0  0999 V2000
    0.0000   -1.9878    0.0000 O   0  0  0  0  0  1  0  0  0  0  0  0
    1.1466   -1.3194    0.0000 N   0  0  0  0  0  4  0  0  0  0  0  0
    1.1466    0.0000    0.0000 O   0  0  0  0  0  2  0  0  0  0  0  0
    2.3046   -1.9878    0.0000 C   0  0  0  0  0  4  0  0  0  0  0  0
    3.4570   -1.3194    0.0000 C   0  0  0  0  0  4  0  0  0  0  0  0
    4.6150   -1.9878    0.0000 C   0  0  0  0  0  4  0  0  0  0  0  0
    5.7616   -1.3194    0.0000 C   0  0  0  0  0  4  0  0  0  0  0  0
  1  2  1  0  0  0  0 
  2  3  2  0  0  0  0 
  2  4  1  0  0  0  0 
  4  5  1  0  0  0  0 
  5  6  1  0  0  0  0 
  6  7  1  0  0  0  0 
M  CHG  1   1  -1
M  CHG  1   2   1
M  END
> <CDK Fingerprint>
IgAACAABAAAAAAAAAAgQAAAAAAAAAAAEAAAAYQAAAAAAAAAAAAgAACAAAAACAAAAAAAAAEAAAAAAAAAAAAAAQAAAAAAAAAAAAgAAAAAAAAAAAAAAAAAAAAAABAAAAAAAAAAAAAAQAQAAAAAAAAAAAAAAAAAAAgAA

> <ActivityOutcome_CPDBAS_Rat>
inactive

$$$$

  CDK     0721101958

  7  6  0  0  0  0  0  0  0  0999 V2000
    0.0000   -2.3106    0.0000 C   0  0  0  0  0  4  0  0  0  0  0  0
    1.3282   -2.3106    0.0000 C   0  0  0  0  0  4  0  0  0  0  0  0
    3.3241   -1.1622    0.0000 O   0  0  0  0  0  1  0  0  0  0  0  0
    1.9993   -1.1622    0.0000 N   0  0  0  0  0  4  0  0  0  0  0  0
    1.3282    0.0000    0.0000 O   0  0  0  0  0  2  0  0  0  0  0  0
    1.9993   -3.4590    0.0000 C   0  0  0  0  0  4  0  0  0  0  0  0
    3.3241   -3.4590    0.0000 C   0  0  0  0  0  4  0  0  0  0  0  0
  1  2  1  0  0  0  0 
  2  4  1  0  0  0  0 
  2  6  1  0  0  0  0 
  3  4  1  0  0  0  0 
  4  5  2  0  0  0  0 
  6  7  1  0  0  0  0 
M  CHG  1   3  -1
M  CHG  1   4   1
M  END
> <CDK Fingerprint>
IgAACAABAAAAAAAAAAAQAAAAAAAAAAAEAAAAYQAAAAAAAAAAAAgAACAAAAACAAAAAAAAAEAAAAAAAAAAAAAAAAAAAAAAAAAAAAAAAAAAAAAAAAAAAAAAAAAABAAAAAAAAAAAAAAQAQAAAAAAAAAAAAAAAAAAAgAA

> <ActivityOutcome_CPDBAS_Rat>
active

> <TD50_Rat_mmol>
0.0277

$$$$

  CDK     0721101958

  5  4  0  0  0  0  0  0  0  0999 V2000
    1.1511    0.0000    0.0000 O   0  0  0  0  0  2  0  0  0  0  0  0
    1.1511   -1.3308    0.0000 N   0  0  0  0  0  4  0  0  0  0  0  0
    2.3056   -1.9945    0.0000 C   0  0  0  0  0  4  0  0  0  0  0  0
    3.4567   -1.3308    0.0000 C   0  0  0  0  0  4  0  0  0  0  0  0
    0.0000   -1.9945    0.0000 O   0  0  0  0  0  1  0  0  0  0  0  0
  1  2  2  0  0  0  0 
  2  3  1  0  0  0  0 
  2  5  1  0  0  0  0 
  3  4  1  0  0  0  0 
M  CHG  1   2   1
M  CHG  1   5  -1
M  END
> <CDK Fingerprint>
IgAACAAAAAAAAAAAAAAQAAAAAAAAAAAEAAAAYAAAAAAAAAAAAAAAACAAAAACAAAAAAAAAAAAAAAAAAAAAAAAAAAAAAAAAAAAAAAAAAAAAAAAAAAAAAAAAAAABAAAAAAAAAAAAAAAAQAAAAAAAAAAAAAAAAAAAgAA

> <ActivityOutcome_CPDBAS_Rat>
inactive

$$$$

  CDK     0721101958

 18 19  0  0  0  0  0  0  0  0999 V2000
    2.3005    0.0000    0.0000 Cl  0  0  0  0  0  1  0  0  0  0  0  0
    2.3005   -1.3264    0.0000 C   0  0  0  0  0  4  0  0  0  0  0  0
    3.4508   -1.9896    0.0000 C   0  0  0  0  0  4  0  0  0  0  0  0
    3.4508   -3.3264    0.0000 C   0  0  0  0  0  4  0  0  0  0  0  0
    2.3005   -3.9897    0.0000 C   0  0  0  0  0  4  0  0  0  0  0  0
    1.1503   -3.3264    0.0000 C   0  0  0  0  0  4  0  0  0  0  0  0
    1.1503   -1.9896    0.0000 C   0  0  0  0  0  4  0  0  0  0  0  0
    0.0000   -3.9897    0.0000 Cl  0  0  0  0  0  1  0  0  0  0  0  0
    4.6011   -1.3264    0.0000 O   0  0  0  0  0  2  0  0  0  0  0  0
    5.7617   -1.9896    0.0000 C   0  0  0  0  0  4  0  0  0  0  0  0
    6.9120   -1.3264    0.0000 C   0  0  0  0  0  4  0  0  0  0  0  0
    8.0622   -1.9896    0.0000 C   0  0  0  0  0  4  0  0  0  0  0  0
    8.0622   -3.3264    0.0000 C   0  0  0  0  0  4  0  0  0  0  0  0
    6.9120   -3.9897    0.0000 C   0  0  0  0  0  4  0  0  0  0  0  0
    5.7617   -3.3264    0.0000 C   0  0  0  0  0  4  0  0  0  0  0  0
    9.2125   -3.9897    0.0000 N   0  0  0  0  0  4  0  0  0  0  0  0
    9.2125   -5.3161    0.0000 O   0  0  0  0  0  2  0  0  0  0  0  0
   10.3627   -3.3264    0.0000 O   0  0  0  0  0  1  0  0  0  0  0  0
  1  2  1  0  0  0  0 
  2  3  2  0  0  0  0 
  2  7  1  0  0  0  0 
  3  4  1  0  0  0  0 
  3  9  1  0  0  0  0 
  4  5  2  0  0  0  0 
  5  6  1  0  0  0  0 
  6  7  2  0  0  0  0 
  6  8  1  0  0  0  0 
  9 10  1  0  0  0  0 
 10 11  2  0  0  0  0 
 10 15  1  0  0  0  0 
 11 12  1  0  0  0  0 
 12 13  2  0  0  0  0 
 13 14  1  0  0  0  0 
 13 16  1  0  0  0  0 
 14 15  2  0  0  0  0 
 16 17  2  0  0  0  0 
 16 18  1  0  0  0  0 
M  CHG  1  16   1
M  CHG  1  18  -1
M  END
> <CDK Fingerprint>
GAAAEgIAACAAgEoAIAAAAAgAAAKAGECIAAEAAAQABgAAAuFABAAEEAAAAAAAAAAoAAAgAgAAAGAEhAQAAAAhAAKUAAAAAAAAAAAEAACAoABFAAAAAAAAAQECAAAQAAAgAAQBgCgkIABAIhIACAAAAAAAAIAAAAAAAAAAACIwAA==

> <ActivityOutcome_CPDBAS_Rat>
active

> <TD50_Rat_mmol>
1.48

$$$$

  CDK     0721101958

 16 18  0  0  0  0  0  0  0  0999 V2000
    4.3802   -1.8357    0.0000 C   0  0  0  0  0  4  0  0  0  0  0  0
    4.3802   -3.0898    0.0000 C   0  0  0  0  0  4  0  0  0  0  0  0
    3.2897   -1.1996    0.0000 C   0  0  0  0  0  4  0  0  0  0  0  0
    2.1901   -1.8357    0.0000 C   0  0  0  0  0  4  0  0  0  0  0  0
    2.1901   -3.0898    0.0000 C   0  0  0  0  0  4  0  0  0  0  0  0
    0.0000   -3.0989    0.0000 C   0  0  0  0  0  4  0  0  0  0  0  0
    1.0996   -3.7259    0.0000 C   0  0  0  0  0  4  0  0  0  0  0  0
    0.0000   -1.8357    0.0000 C   0  0  0  0  0  4  0  0  0  0  0  0
    1.0996   -1.1996    0.0000 C   0  0  0  0  0  4  0  0  0  0  0  0
    6.5794   -3.0989    0.0000 C   0  0  0  0  0  4  0  0  0  0  0  0
    5.4798   -3.7259    0.0000 C   0  0  0  0  0  4  0  0  0  0  0  0
    6.5794   -1.8357    0.0000 C   0  0  0  0  0  4  0  0  0  0  0  0
    5.4798   -1.1996    0.0000 C   0  0  0  0  0  4  0  0  0  0  0  0
    9.0875   -1.1814    0.0000 O   0  0  0  0  0  1  0  0  0  0  0  0
    7.7335   -1.1814    0.0000 N   0  0  0  0  0  4  0  0  0  0  0  0
    7.0519    0.0000    0.0000 O   0  0  0  0  0  2  0  0  0  0  0  0
  1  3  1  0  0  0  0 
  1  2  2  0  0  0  0 
  1 13  1  0  0  0  0 
  2 11  1  0  0  0  0 
  2  5  1  0  0  0  0 
  3  4  1  0  0  0  0 
  4  5  2  0  0  0  0 
  4  9  1  0  0  0  0 
  5  7  1  0  0  0  0 
  6  7  2  0  0  0  0 
  6  8  1  0  0  0  0 
  8  9  2  0  0  0  0 
 10 11  2  0  0  0  0 
 10 12  1  0  0  0  0 
 12 13  2  0  0  0  0 
 12 15  1  0  0  0  0 
 14 15  1  0  0  0  0 
 15 16  2  0  0  0  0 
M  CHG  1  14  -1
M  CHG  1  15   1
M  END
> <CDK Fingerprint>
BAEQAgAAIAUACACAIAEwCQAgABBYQUAAAEACDAAHCAAAYCFEEAAAgAAAAkACACAABAADAIQEQAUIAEAAAQAABAjAAIAQQQAAAABAAKBBCAAAAOAAoAAAgAAAABigACBADQBAIQAAAEBiAmCBBQAABBQKgIACQRBICAAAAhAA

> <ActivityOutcome_CPDBAS_Rat>
active

> <TD50_Rat_mmol>
0.00135

$$$$

  CDK     0721101958

 17 18  0  0  0  0  0  0  0  0999 V2000
    9.0879   -4.6811    0.0000 O   0  0  0  0  0  2  0  0  0  0  0  0
    8.6718   -3.4139    0.0000 C   0  0  0  0  0  4  0  0  0  0  0  0
    7.4141   -3.0072    0.0000 N   0  0  0  0  0  3  0  0  0  0  0  0
    7.4141   -1.6738    0.0000 C   0  0  0  0  0  4  0  0  0  0  0  0
    8.6718   -1.2672    0.0000 C   0  0  0  0  0  4  0  0  0  0  0  0
    9.0879    0.0000    0.0000 O   0  0  0  0  0  2  0  0  0  0  0  0
    9.4567   -2.3358    0.0000 N   0  0  0  0  0  3  0  0  0  0  0  0
    6.3360   -3.7827    0.0000 N   0  0  0  0  0  3  0  0  0  0  0  0
    5.1161   -3.2437    0.0000 C   0  0  0  0  0  4  0  0  0  0  0  0
    4.0380   -4.0286    0.0000 C   0  0  0  0  0  4  0  0  0  0  0  0
    4.0380   -5.3620    0.0000 C   0  0  0  0  0  4  0  0  0  0  0  0
    2.7803   -5.7686    0.0000 C   0  0  0  0  0  4  0  0  0  0  0  0
    1.9954   -4.6905    0.0000 C   0  0  0  0  0  4  0  0  0  0  0  0
    2.7803   -3.6125    0.0000 O   0  0  0  0  0  2  0  0  0  0  0  0
    0.6620   -4.6905    0.0000 N   0  0  0  0  0  4  0  0  0  0  0  0
    0.0000   -5.8442    0.0000 O   0  0  0  0  0  2  0  0  0  0  0  0
    0.0000   -3.5368    0.0000 O   0  0  0  0  0  1  0  0  0  0  0  0
  1  2  2  0  0  0  0 
  2  3  1  0  0  0  0 
  2  7  1  0  0  0  0 
  3  4  1  0  0  0  0 
  3  8  1  0  0  0  0 
  4  5  1  0  0  0  0 
  5  6  2  0  0  0  0 
  5  7  1  0  0  0  0 
  8  9  2  0  0  0  0 
  9 10  1  0  0  0  0 
 10 11  2  0  0  0  0 
 10 14  1  0  0  0  0 
 11 12  1  0  0  0  0 
 12 13  2  0  0  0  0 
 13 14  1  0  0  0  0 
 13 15  1  0  0  0  0 
 15 16  2  0  0  0  0 
 15 17  1  0  0  0  0 
M  CHG  1  15   1
M  CHG  1  17  -1
M  END
> <CDK Fingerprint>
DjAAMBJBICMQEEqAAeIgAEu4YAACEuVQBABQAAQgJEBAoGAgBACCABICAAEAKcEggIAAAkAAQEsABgCABIASgAAQEAJgAAABAgABUB2AwAAAA8AQChQAQIAAACAAgQciBEQgFCQEBQIAMglAkDIAgADIpALQAEgAAAACIAMgIA==

> <ActivityOutcome_CPDBAS_Rat>
active

> <TD50_Rat_mmol>
0.684

$$$$

  CDK     0721101958

 16 17  0  0  0  0  0  0  0  0999 V2000
    9.7089   -2.5923    0.0000 O   0  0  0  0  0  1  0  0  0  0  0  0
    8.4953   -2.0486    0.0000 N   0  0  0  0  0  4  0  0  0  0  0  0
    8.3594   -0.7282    0.0000 O   0  0  0  0  0  2  0  0  0  0  0  0
    7.4176   -2.8350    0.0000 C   0  0  0  0  0  4  0  0  0  0  0  0
    7.4176   -4.1651    0.0000 C   0  0  0  0  0  4  0  0  0  0  0  0
    6.1555   -4.5729    0.0000 C   0  0  0  0  0  4  0  0  0  0  0  0
    5.3690   -3.4952    0.0000 C   0  0  0  0  0  4  0  0  0  0  0  0
    6.1555   -2.4175    0.0000 O   0  0  0  0  0  2  0  0  0  0  0  0
    4.0389   -3.4952    0.0000 C   0  0  0  0  0  4  0  0  0  0  0  0
    3.3787   -2.3496    0.0000 N   0  0  0  0  0  3  0  0  0  0  0  0
    2.0486   -2.3496    0.0000 N   0  0  0  0  0  3  0  0  0  0  0  0
    1.2622   -3.4175    0.0000 C   0  0  0  0  0  4  0  0  0  0  0  0
    0.0000   -3.0098    0.0000 C   0  0  0  0  0  4  0  0  0  0  0  0
    0.0000   -1.6796    0.0000 N   0  0  0  0  0  3  0  0  0  0  0  0
    1.2622   -1.2719    0.0000 C   0  0  0  0  0  4  0  0  0  0  0  0
    1.6796    0.0000    0.0000 O   0  0  0  0  0  2  0  0  0  0  0  0
  1  2  1  0  0  0  0 
  2  3  2  0  0  0  0 
  2  4  1  0  0  0  0 
  4  5  2  0  0  0  0 
  4  8  1  0  0  0  0 
  5  6  1  0  0  0  0 
  6  7  2  0  0  0  0 
  7  8  1  0  0  0  0 
  7  9  1  0  0  0  0 
  9 10  2  0  0  0  0 
 10 11  1  0  0  0  0 
 11 12  1  0  0  0  0 
 11 15  1  0  0  0  0 
 12 13  1  0  0  0  0 
 13 14  1  0  0  0  0 
 14 15  1  0  0  0  0 
 15 16  2  0  0  0  0 
M  CHG  1   1  -1
M  CHG  1   2   1
M  END
> <CDK Fingerprint>
DhAAMAJBICMQEEoAAeIgAEooYAAAEuVQBABQAAQgJEBAIGAgBACCABICAAEAKYEggIAAAkAAQEsAAgCABIASgAAQEAJgAAAAAgABUB2AgAAAA8AQChQAQIAAACAAgQciBEQgFCQEBQIAMglAkDIAAADIpALQAEgAAAACIAMgIA==

> <ActivityOutcome_CPDBAS_Rat>
active

> <TD50_Rat_mmol>
0.0235

$$$$

  CDK     0721101958

  8  7  0  0  0  0  0  0  0  0999 V2000
    6.9115   -1.9974    0.0000 Cl  0  0  0  0  0  1  0  0  0  0  0  0
    5.7573   -1.3339    0.0000 C   0  0  0  0  0  4  0  0  0  0  0  0
    4.6100   -1.9974    0.0000 C   0  0  0  0  0  4  0  0  0  0  0  0
    3.4558   -1.3339    0.0000 N   0  0  0  0  0  3  0  0  0  0  0  0
    3.4558    0.0000    0.0000 C   0  0  0  0  0  4  0  0  0  0  0  0
    2.3015   -1.9974    0.0000 C   0  0  0  0  0  4  0  0  0  0  0  0
    1.1542   -1.3339    0.0000 C   0  0  0  0  0  4  0  0  0  0  0  0
    0.0000   -1.9974    0.0000 Cl  0  0  0  0  0  1  0  0  0  0  0  0
  1  2  1  0  0  0  0 
  2  3  1  0  0  0  0 
  3  4  1  0  0  0  0 
  4  5  1  0  0  0  0 
  4  6  1  0  0  0  0 
  6  7  1  0  0  0  0 
  7  8  1  0  0  0  0 
M  END
> <CDK Fingerprint>
EAAAAAAAAgAAAAAAAAAAAAIAAAAAAAAAAAAAAAAAAAAA4AAAAAAAAAAAAAAAACAAAAACAAAAAAAAAIAAAAEAAAAIAAAAABAAAAAAAACAAAAAAAAAAAAAAAAAAAAAAAAAAAAAAAAAAAAAAAAAAAAAAAAABAAAAAAAAAAAAgAA

> <ActivityOutcome_CPDBAS_Rat>
active

> <TD50_Rat_mmol>
0.0000731

$$$$

  CDK     0721101958

  9  8  0  0  0  0  0  0  0  0999 V2000
    3.4581   -1.1568    0.0000 N   0  0  0  0  0  4  0  0  0  0  0  0
    4.1252   -2.3074    0.0000 C   0  0  0  0  0  4  0  0  0  0  0  0
    5.4533   -2.3074    0.0000 C   0  0  0  0  0  4  0  0  0  0  0  0
    6.1205   -1.1568    0.0000 Cl  0  0  0  0  0  1  0  0  0  0  0  0
    2.3074   -1.8178    0.0000 C   0  0  0  0  0  4  0  0  0  0  0  0
    1.1507   -1.1568    0.0000 C   0  0  0  0  0  4  0  0  0  0  0  0
    0.0000   -1.8178    0.0000 Cl  0  0  0  0  0  1  0  0  0  0  0  0
    2.7909    0.0000    0.0000 C   0  0  0  0  0  4  0  0  0  0  0  0
    4.6087   -0.4896    0.0000 O   0  0  0  0  0  1  0  0  0  0  0  0
  1  2  1  0  0  0  0 
  1  5  1  0  0  0  0 
  1  8  1  0  0  0  0 
  1  9  1  0  0  0  0 
  2  3  1  0  0  0  0 
  3  4  1  0  0  0  0 
  5  6  1  0  0  0  0 
  6  7  1  0  0  0  0 
M  CHG  1   1   1
M  CHG  1   9  -1
M  END
> <CDK Fingerprint>
EAAAAAAAIgAACAAAAAAAAAIAAAAAAAAAAAAAAAAAAAAA4AAAAAAAAAAAAAAAACAAAAACAAAAAAAAAIAAAAEAAAAIAAEAABAAAAAAAACAAAAAAAAAAAAAAAAAAAAAAAAAAAAAAAAAAAAAAAAAAAAAAAAABAAAAAAAAAAAAgAA

> <ActivityOutcome_CPDBAS_Rat>
active

> <TD50_Rat_mmol>
0.00444

$$$$

  CDK     0721101958

  4  3  0  0  0  0  0  0  0  0999 V2000
    0.0000   -1.1505    0.0000 C   0  0  0  0  0  4  0  0  0  0  0  0
    1.3323   -1.1505    0.0000 N   0  0  0  0  0  4  0  0  0  0  0  0
    1.9973    0.0000    0.0000 O   0  0  0  0  0  2  0  0  0  0  0  0
    1.9973   -2.3010    0.0000 O   0  0  0  0  0  1  0  0  0  0  0  0
  1  2  1  0  0  0  0 
  2  3  2  0  0  0  0 
  2  4  1  0  0  0  0 
M  CHG  1   2   1
M  CHG  1   4  -1
M  END
> <CDK Fingerprint>
CAAAAAAAAAAAAAAQAAAAAAAAAAAEAAAAYAAAAAAAAAAAAAAAAAAAAAACAAAAAAAAAAAAAAAAAAAAAAAAAAAAAAAAAAAAAAAAAAAAAAAAAAAAAAAAAAAABAAAAAAAAAAAAAAAAAAAAAAAAAAAAAAAAAAAAgAA

> <ActivityOutcome_CPDBAS_Rat>
active

> <TD50_Rat_mmol>
0.662

$$$$

  CDK     0721101958

 13 14  0  0  0  0  0  0  0  0999 V2000
    1.1516   -3.9902    0.0000 O   0  0  0  0  0  2  0  0  0  0  0  0
    1.1516   -2.6601    0.0000 N   0  0  0  0  0  4  0  0  0  0  0  0
    2.3031   -1.9922    0.0000 C   0  0  0  0  0  4  0  0  0  0  0  0
    3.4547   -2.6601    0.0000 C   0  0  0  0  0  4  0  0  0  0  0  0
    4.6063   -1.9922    0.0000 C   0  0  0  0  0  4  0  0  0  0  0  0
    4.6063   -0.6622    0.0000 C   0  0  0  0  0  4  0  0  0  0  0  0
    3.4547    0.0000    0.0000 C   0  0  0  0  0  4  0  0  0  0  0  0
    2.3031   -0.6622    0.0000 C   0  0  0  0  0  4  0  0  0  0  0  0
    5.7578   -2.6601    0.0000 C   0  0  0  0  0  4  0  0  0  0  0  0
    5.7578   -3.9902    0.0000 C   0  0  0  0  0  4  0  0  0  0  0  0
    4.6063   -4.6523    0.0000 C   0  0  0  0  0  4  0  0  0  0  0  0
    3.4547   -3.9902    0.0000 C   0  0  0  0  0  4  0  0  0  0  0  0
    0.0000   -1.9922    0.0000 O   0  0  0  0  0  1  0  0  0  0  0  0
  1  2  2  0  0  0  0 
  2  3  1  0  0  0  0 
  2 13  1  0  0  0  0 
  3  4  2  0  0  0  0 
  3  8  1  0  0  0  0 
  4  5  1  0  0  0  0 
  4 12  1  0  0  0  0 
  5  6  2  0  0  0  0 
  5  9  1  0  0  0  0 
  6  7  1  0  0  0  0 
  7  8  2  0  0  0  0 
  9 10  2  0  0  0  0 
 10 11  1  0  0  0  0 
 11 12  2  0  0  0  0 
M  CHG  1   2   1
M  CHG  1  13  -1
M  END
> <CDK Fingerprint>
EAIAACAAAAgAAAABAAgAAAAAGEAAAAAAAAQABgAAAGAABAAAAAAAAAAAAAAAAAAEAgAAAEAEAAAAgAAAAAAAAAAAgAAAAAABAACAAAAAAAAAAAAAAEAAAAAQAAAgAAQAACAAAABAIAIAAAAAAAAAAIAAAABAAAAAAAIQAA==

> <ActivityOutcome_CPDBAS_Rat>
inactive

$$$$

  CDK     0721101958

  8  7  0  0  0  0  0  0  0  0999 V2000
    3.4583   -2.6570    0.0000 O   0  0  0  0  0  2  0  0  0  0  0  0
    1.1466   -2.6570    0.0000 O   0  0  0  0  0  1  0  0  0  0  0  0
    2.3024   -1.9939    0.0000 N   0  0  0  0  0  4  0  0  0  0  0  0
    0.0000   -0.6631    0.0000 C   0  0  0  0  0  4  0  0  0  0  0  0
    1.1466    0.0000    0.0000 C   0  0  0  0  0  4  0  0  0  0  0  0
    2.3024   -0.6631    0.0000 C   0  0  0  0  0  4  0  0  0  0  0  0
    3.4583    0.0000    0.0000 C   0  0  0  0  0  4  0  0  0  0  0  0
    4.6049   -0.6631    0.0000 C   0  0  0  0  0  4  0  0  0  0  0  0
  1  3  2  0  0  0  0 
  2  3  1  0  0  0  0 
  3  6  1  0  0  0  0 
  4  5  1  0  0  0  0 
  5  6  1  0  0  0  0 
  6  7  1  0  0  0  0 
  7  8  1  0  0  0  0 
M  CHG  1   2  -1
M  CHG  1   3   1
M  END
> <CDK Fingerprint>
IgAACAABAAAAAAAAAAAQAAAAAAAAAAAEAAEAYQAAAAAAAAAAAAgAACAAAAACAAAAAAAAAEAAAAAAAAAAAAAAAAAAAAAAAAAAAAAAAAAAAAAAAAAAAAAAAAAABAAAAAAAAAAAAAAQAQAAAAAAAAAAAAAAAAAAAgAA

> <ActivityOutcome_CPDBAS_Rat>
active

> <TD50_Rat_mmol>
0.0202

$$$$

  CDK     0721101958

  6  5  0  0  0  0  0  0  0  0999 V2000
    3.4563    0.0000    0.0000 O   0  0  0  0  0  2  0  0  0  0  0  0
    3.4563   -1.3318    0.0000 N   0  0  0  0  0  4  0  0  0  0  0  0
    2.3042   -1.9954    0.0000 C   0  0  0  0  0  4  0  0  0  0  0  0
    1.1521   -1.3318    0.0000 C   0  0  0  0  0  4  0  0  0  0  0  0
    0.0000   -1.9954    0.0000 C   0  0  0  0  0  4  0  0  0  0  0  0
    4.6084   -1.9954    0.0000 O   0  0  0  0  0  1  0  0  0  0  0  0
  1  2  2  0  0  0  0 
  2  3  1  0  0  0  0 
  2  6  1  0  0  0  0 
  3  4  1  0  0  0  0 
  4  5  1  0  0  0  0 
M  CHG  1   2   1
M  CHG  1   6  -1
M  END
> <CDK Fingerprint>
IgAACAABAAAAAAAAAAAQAAAAAAAAAAAEAAAAYQAAAAAAAAAAAAgAACAAAAACAAAAAAAAAEAAAAAAAAAAAAAAAAAAAAAAAAAAAAAAAAAAAAAAAAAAAAAAAAAABAAAAAAAAAAAAAAAAQAAAAAAAAAAAAAAAAAAAgAA

> <ActivityOutcome_CPDBAS_Rat>
inactive

$$$$

  CDK     0721101958

  6  5  0  0  0  0  0  0  0  0999 V2000
    1.3307    0.0000    0.0000 C   0  0  0  0  0  4  0  0  0  0  0  0
    1.9943   -1.1509    0.0000 C   0  0  0  0  0  4  0  0  0  0  0  0
    1.3307   -2.3053    0.0000 N   0  0  0  0  0  4  0  0  0  0  0  0
    1.9943   -3.4563    0.0000 O   0  0  0  0  0  2  0  0  0  0  0  0
    0.0000   -2.3053    0.0000 O   0  0  0  0  0  1  0  0  0  0  0  0
    3.3250   -1.1509    0.0000 C   0  0  0  0  0  4  0  0  0  0  0  0
  1  2  1  0  0  0  0 
  2  3  1  0  0  0  0 
  2  6  1  0  0  0  0 
  3  4  2  0  0  0  0 
  3  5  1  0  0  0  0 
M  CHG  1   3   1
M  CHG  1   5  -1
M  END
> <CDK Fingerprint>
IgAACAAAAAAAAAAAAAAQAAAAAAAAAAAEAAAAYAAAAAAAAAAAAAAAACAAAAACAAAAAAAAAEAAAAAAAAAAAAAAAAAAAAAAAAAAAAAAAAAAAAAAAAAAAAAAAAAABAAAAAAAAAAAAAAAAQAAAAAAAAAAAAAAAAAAAgAA

> <ActivityOutcome_CPDBAS_Rat>
inactive

$$$$

  CDK     0721101958

  8  7  0  0  0  0  0  0  0  0999 V2000
    5.7628   -1.9939    0.0000 O   0  0  0  0  0  2  0  0  0  0  0  0
    4.6103   -1.3312    0.0000 C   0  0  0  0  0  4  0  0  0  0  0  0
    4.6103    0.0000    0.0000 O   0  0  0  0  0  2  0  0  0  0  0  0
    3.4577   -1.9939    0.0000 C   0  0  0  0  0  4  0  0  0  0  0  0
    2.3051   -1.3312    0.0000 C   0  0  0  0  0  4  0  0  0  0  0  0
    1.1526   -1.9939    0.0000 N   0  0  0  0  0  4  0  0  0  0  0  0
    1.1526   -3.3252    0.0000 O   0  0  0  0  0  2  0  0  0  0  0  0
    0.0000   -1.3312    0.0000 O   0  0  0  0  0  1  0  0  0  0  0  0
  1  2  1  0  0  0  0 
  2  3  2  0  0  0  0 
  2  4  1  0  0  0  0 
  4  5  1  0  0  0  0 
  5  6  1  0  0  0  0 
  6  7  2  0  0  0  0 
  6  8  1  0  0  0  0 
M  CHG  1   6   1
M  CHG  1   8  -1
M  END
> <CDK Fingerprint>
IgAACgABAAAAAAAAAACQAAAAAAAAAAAEAAAAYQAAAAAAAAAAAAgAECAAAAACAAAAAAAAAkAAAAAAAAAAAAAAAAAAAAAAAAAACAAAAAAAAAAAABAAAAAAAAAARAAAAAAAAAAAABAAAQEAQAAAAFBAAAAAAAAAAgAA

> <ActivityOutcome_CPDBAS_Rat>
inactive

$$$$

  CDK     0721101958

 19 22  0  0  0  0  0  0  0  0999 V2000
    6.9107   -3.9916    0.0000 O   0  0  0  0  0  2  0  0  0  0  0  0
    6.9107   -2.6611    0.0000 N   0  0  0  0  0  4  0  0  0  0  0  0
    5.7576   -1.9918    0.0000 C   0  0  0  0  0  4  0  0  0  0  0  0
    5.7576   -0.6612    0.0000 C   0  0  0  0  0  4  0  0  0  0  0  0
    4.6045    0.0000    0.0000 C   0  0  0  0  0  4  0  0  0  0  0  0
    3.4594   -0.6612    0.0000 C   0  0  0  0  0  4  0  0  0  0  0  0
    3.4594   -1.9918    0.0000 C   0  0  0  0  0  4  0  0  0  0  0  0
    2.3063   -2.6611    0.0000 C   0  0  0  0  0  4  0  0  0  0  0  0
    2.3063   -3.9916    0.0000 C   0  0  0  0  0  4  0  0  0  0  0  0
    3.4594   -4.6528    0.0000 C   0  0  0  0  0  4  0  0  0  0  0  0
    4.6045   -3.9916    0.0000 C   0  0  0  0  0  4  0  0  0  0  0  0
    4.6045   -2.6611    0.0000 C   0  0  0  0  0  4  0  0  0  0  0  0
    1.1531   -4.6528    0.0000 C   0  0  0  0  0  4  0  0  0  0  0  0
    0.0000   -3.9916    0.0000 C   0  0  0  0  0  4  0  0  0  0  0  0
    0.0000   -2.6611    0.0000 C   0  0  0  0  0  4  0  0  0  0  0  0
    1.1531   -1.9918    0.0000 C   0  0  0  0  0  4  0  0  0  0  0  0
    1.1531   -0.6612    0.0000 C   0  0  0  0  0  4  0  0  0  0  0  0
    2.3063    0.0000    0.0000 C   0  0  0  0  0  4  0  0  0  0  0  0
    8.0639   -1.9918    0.0000 O   0  0  0  0  0  1  0  0  0  0  0  0
  1  2  2  0  0  0  0 
  2  3  1  0  0  0  0 
  2 19  1  0  0  0  0 
  3  4  2  0  0  0  0 
  3 12  1  0  0  0  0 
  4  5  1  0  0  0  0 
  5  6  2  0  0  0  0 
  6  7  1  0  0  0  0 
  6 18  1  0  0  0  0 
  7  8  2  0  0  0  0 
  7 12  1  0  0  0  0 
  8  9  1  0  0  0  0 
  8 16  1  0  0  0  0 
  9 10  2  0  0  0  0 
  9 13  1  0  0  0  0 
 10 11  1  0  0  0  0 
 11 12  2  0  0  0  0 
 13 14  2  0  0  0  0 
 14 15  1  0  0  0  0 
 15 16  2  0  0  0  0 
 16 17  1  0  0  0  0 
 17 18  2  0  0  0  0 
M  CHG  1   2   1
M  CHG  1  19  -1
M  END
> <CDK Fingerprint>
EAIAACAAAAgAAAABAAgAAAAAGEAAAAAAAAQABgAAAGAABAAAAAAAAAAAAAAAAAAEAgAAAEAEAAAAgAAAAAAAAAAAgAAAAAABAACAAAAAAAAAAAAAAEAAAAAQAAAgAAQAACAAAABAIAIAAAAAAAAAAIAAAABAAAAAAAIQAA==

> <ActivityOutcome_CPDBAS_Rat>
active

> <TD50_Rat_mmol>
0.0135

$$$$

  CDK     0721101958

 13 14  0  0  0  0  0  0  0  0999 V2000
    0.0000   -3.4578    0.0000 O   0  0  0  0  0  2  0  0  0  0  0  0
    0.6650   -2.3074    0.0000 N   0  0  0  0  0  4  0  0  0  0  0  0
    1.9949   -2.3074    0.0000 C   0  0  0  0  0  4  0  0  0  0  0  0
    2.6599   -1.1570    0.0000 C   0  0  0  0  0  4  0  0  0  0  0  0
    3.9898   -1.1570    0.0000 C   0  0  0  0  0  4  0  0  0  0  0  0
    4.6548    0.0000    0.0000 C   0  0  0  0  0  4  0  0  0  0  0  0
    5.9847    0.0000    0.0000 C   0  0  0  0  0  4  0  0  0  0  0  0
    6.6497   -1.1570    0.0000 C   0  0  0  0  0  4  0  0  0  0  0  0
    5.9847   -2.3074    0.0000 N   0  0  0  0  0  3  0  0  0  0  0  0
    4.6548   -2.3074    0.0000 C   0  0  0  0  0  4  0  0  0  0  0  0
    3.9898   -3.4578    0.0000 C   0  0  0  0  0  4  0  0  0  0  0  0
    2.6599   -3.4578    0.0000 C   0  0  0  0  0  4  0  0  0  0  0  0
    0.0000   -1.1570    0.0000 O   0  0  0  0  0  1  0  0  0  0  0  0
  1  2  2  0  0  0  0 
  2  3  1  0  0  0  0 
  2 13  1  0  0  0  0 
  3  4  2  0  0  0  0 
  3 12  1  0  0  0  0 
  4  5  1  0  0  0  0 
  5  6  2  0  0  0  0 
  5 10  1  0  0  0  0 
  6  7  1  0  0  0  0 
  7  8  2  0  0  0  0 
  8  9  1  0  0  0  0 
  9 10  2  0  0  0  0 
 10 11  1  0  0  0  0 
 11 12  2  0  0  0  0 
M  CHG  1   2   1
M  CHG  1  13  -1
M  END
> <CDK Fingerprint>
AhGSAgAggAAMAgAAAQAIAAAAABhAAAAAAAAECgYAAABgAARgAAAAAAAAAAAIAEAABAIIAABABAAAAJAAAAFAAAAAAIAAACAADQAAgAAAhAAAgAAAAABAIAAAEAAAIEAEAQAgCIEBQCACAQAAAAAAAACAAAACQAAAgIACkAA=

> <ActivityOutcome_CPDBAS_Rat>
inactive

$$$$

  CDK     0721101958

 13 14  0  0  0  0  0  0  0  0999 V2000
    2.3040    0.0000    0.0000 O   0  0  0  0  0  2  0  0  0  0  0  0
    3.4536   -0.6656    0.0000 N   0  0  0  0  0  4  0  0  0  0  0  0
    3.4536   -1.9968    0.0000 C   0  0  0  0  0  4  0  0  0  0  0  0
    4.6080   -2.6577    0.0000 C   0  0  0  0  0  4  0  0  0  0  0  0
    4.6080   -3.9889    0.0000 C   0  0  0  0  0  4  0  0  0  0  0  0
    3.4536   -4.6545    0.0000 C   0  0  0  0  0  4  0  0  0  0  0  0
    2.3040   -3.9889    0.0000 C   0  0  0  0  0  4  0  0  0  0  0  0
    1.1497   -4.6545    0.0000 C   0  0  0  0  0  4  0  0  0  0  0  0
    0.0000   -3.9889    0.0000 C   0  0  0  0  0  4  0  0  0  0  0  0
    0.0000   -2.6577    0.0000 C   0  0  0  0  0  4  0  0  0  0  0  0
    1.1497   -1.9968    0.0000 N   0  0  0  0  0  3  0  0  0  0  0  0
    2.3040   -2.6577    0.0000 C   0  0  0  0  0  4  0  0  0  0  0  0
    4.6080    0.0000    0.0000 O   0  0  0  0  0  1  0  0  0  0  0  0
  1  2  2  0  0  0  0 
  2  3  1  0  0  0  0 
  2 13  1  0  0  0  0 
  3  4  2  0  0  0  0 
  3 12  1  0  0  0  0 
  4  5  1  0  0  0  0 
  5  6  2  0  0  0  0 
  6  7  1  0  0  0  0 
  7  8  2  0  0  0  0 
  7 12  1  0  0  0  0 
  8  9  1  0  0  0  0 
  9 10  2  0  0  0  0 
 10 11  1  0  0  0  0 
 11 12  2  0  0  0  0 
M  CHG  1   2   1
M  CHG  1  13  -1
M  END
> <CDK Fingerprint>
AhGaAgAggAAMAgAAAQAJAEAAABhAAAAAAAAUCAYAAAFgAARgAAAAAAAAAAAIAEAAhAIAAABABAAAAJAAAAEAAAgAAIAAAAAACQAAgAAAgAgBwAAAAABAIAIAEAAAIEAEBQAgCIEAQCACgQAAIAAAAACAAAACQAAAAIACEEA=

> <ActivityOutcome_CPDBAS_Rat>
active

> <TD50_Rat_mmol>
0.0564

$$$$

  CDK     0721101958

 17 17  0  0  0  0  0  0  0  0999 V2000
    7.9835   -2.2992    0.0000 C   0  0  0  0  0  4  0  0  0  0  0  0
    7.3209   -1.1496    0.0000 C   0  0  0  0  0  4  0  0  0  0  0  0
    7.9835    0.0000    0.0000 C   0  0  0  0  0  4  0  0  0  0  0  0
    5.9876   -1.1496    0.0000 O   0  0  0  0  0  2  0  0  0  0  0  0
    5.3250   -2.2992    0.0000 C   0  0  0  0  0  4  0  0  0  0  0  0
    5.9876   -3.4569    0.0000 C   0  0  0  0  0  4  0  0  0  0  0  0
    5.3250   -4.6065    0.0000 C   0  0  0  0  0  4  0  0  0  0  0  0
    3.9917   -4.6065    0.0000 C   0  0  0  0  0  4  0  0  0  0  0  0
    3.3291   -3.4569    0.0000 C   0  0  0  0  0  4  0  0  0  0  0  0
    3.9917   -2.2992    0.0000 C   0  0  0  0  0  4  0  0  0  0  0  0
    3.3291   -1.1496    0.0000 O   0  0  0  0  0  2  0  0  0  0  0  0
    1.9959   -1.1496    0.0000 C   0  0  0  0  0  4  0  0  0  0  0  0
    1.3332    0.0000    0.0000 O   0  0  0  0  0  2  0  0  0  0  0  0
    1.3332   -2.2992    0.0000 N   0  0  0  0  0  3  0  0  0  0  0  0
    0.0000   -2.2992    0.0000 C   0  0  0  0  0  4  0  0  0  0  0  0
    1.9959   -3.4569    0.0000 N   0  0  0  0  0  3  0  0  0  0  0  0
    1.3332   -4.6065    0.0000 O   0  0  0  0  0  2  0  0  0  0  0  0
  1  2  1  0  0  0  0 
  2  3  1  0  0  0  0 
  2  4  1  0  0  0  0 
  4  5  1  0  0  0  0 
  5  6  2  0  0  0  0 
  5 10  1  0  0  0  0 
  6  7  1  0  0  0  0 
  7  8  2  0  0  0  0 
  8  9  1  0  0  0  0 
  9 10  2  0  0  0  0 
 10 11  1  0  0  0  0 
 11 12  1  0  0  0  0 
 12 13  2  0  0  0  0 
 12 14  1  0  0  0  0 
 14 15  1  0  0  0  0 
 14 16  1  0  0  0  0 
 16 17  2  0  0  0  0 
M  END
> <CDK Fingerprint>
AKAAAAABAAAAAAIAAgQQAAUAQAAACAAQAIAAMACgAAAEBAACeRCABhgAAAQIAAAAACACASAAgAAAQAAACMAAAAKABhIwAAAAAgAAAARAAACIAAIAAAAEEABAABEgAgAgACAARCAAICAhABBgAgEAAAAIAAAAgEAgBAAAiAAAIwAA

> <ActivityOutcome_CPDBAS_Rat>
active

> <TD50_Rat_mmol>
0.00153

$$$$

  CDK     0721101958

 17 16  0  0  0  0  0  0  0  0999 V2000
    5.1404   -3.6328    0.0000 N   0  0  0  0  0  3  0  0  0  0  0  0
    3.8108   -3.6328    0.0000 C   0  0  0  0  0  4  0  0  0  0  0  0
    3.1513   -2.4812    0.0000 C   0  0  0  0  0  4  0  0  0  0  0  0
    1.8217   -2.4812    0.0000 C   0  0  0  0  0  4  0  0  0  0  0  0
    1.1516   -3.6328    0.0000 C   0  0  0  0  0  4  0  0  0  0  0  0
    0.4921   -4.7845    0.0000 F   0  0  0  0  0  1  0  0  0  0  0  0
    0.0000   -2.9628    0.0000 F   0  0  0  0  0  1  0  0  0  0  0  0
    2.3032   -4.2924    0.0000 F   0  0  0  0  0  1  0  0  0  0  0  0
    5.8105   -2.4812    0.0000 C   0  0  0  0  0  4  0  0  0  0  0  0
    7.1401   -2.4812    0.0000 C   0  0  0  0  0  4  0  0  0  0  0  0
    7.8101   -1.3296    0.0000 C   0  0  0  0  0  4  0  0  0  0  0  0
    9.1397   -1.3296    0.0000 C   0  0  0  0  0  4  0  0  0  0  0  0
    9.1397    0.0000    0.0000 F   0  0  0  0  0  1  0  0  0  0  0  0
   10.4693   -1.3296    0.0000 F   0  0  0  0  0  1  0  0  0  0  0  0
    9.1397   -2.6592    0.0000 F   0  0  0  0  0  1  0  0  0  0  0  0
    5.8105   -4.7845    0.0000 N   0  0  0  0  0  3  0  0  0  0  0  0
    7.1401   -4.7845    0.0000 O   0  0  0  0  0  2  0  0  0  0  0  0
  1  2  1  0  0  0  0 
  1  9  1  0  0  0  0 
  1 16  1  0  0  0  0 
  2  3  1  0  0  0  0 
  3  4  1  0  0  0  0 
  4  5  1  0  0  0  0 
  5  6  1  0  0  0  0 
  5  7  1  0  0  0  0 
  5  8  1  0  0  0  0 
  9 10  1  0  0  0  0 
 10 11  1  0  0  0  0 
 11 12  1  0  0  0  0 
 12 13  1  0  0  0  0 
 12 14  1  0  0  0  0 
 12 15  1  0  0  0  0 
 16 17  2  0  0  0  0 
M  END
> <CDK Fingerprint>
EAAAAAAAAgAAAAABgAABAAAAABAAAAAAAAAAAAAEMQACYAAEAAAgAAAACAAAECAAEQAAAIAAAABAAMAAAAAAAAAAAAAARAAAAAAAAACABAAAACAAQAAAAAAAAAAAAAAEBCAAAQAIAAAAAAAQAAAAAAAAAAAAAAgAAAAAEwgA

> <ActivityOutcome_CPDBAS_Rat>
active

> <TD50_Rat_mmol>
0.00281

$$$$

  CDK     0721101958

 11 11  0  0  0  0  0  0  0  0999 V2000
    2.3036    0.0000    0.0000 N   0  0  0  0  0  3  0  0  0  0  0  0
    3.4554   -0.6680    0.0000 C   0  0  0  0  0  4  0  0  0  0  0  0
    3.4554   -1.9984    0.0000 N   0  0  0  0  0  3  0  0  0  0  0  0
    2.3036   -2.6607    0.0000 C   0  0  0  0  0  4  0  0  0  0  0  0
    1.1518   -1.9984    0.0000 C   0  0  0  0  0  4  0  0  0  0  0  0
    1.1518   -0.6680    0.0000 C   0  0  0  0  0  4  0  0  0  0  0  0
    0.0000    0.0000    0.0000 O   0  0  0  0  0  2  0  0  0  0  0  0
    0.0000   -2.6607    0.0000 C   0  0  0  0  0  4  0  0  0  0  0  0
    4.6072   -2.6607    0.0000 N   0  0  0  0  0  3  0  0  0  0  0  0
    5.7591   -1.9984    0.0000 O   0  0  0  0  0  2  0  0  0  0  0  0
    4.6072    0.0000    0.0000 O   0  0  0  0  0  2  0  0  0  0  0  0
  1  2  1  0  0  0  0 
  1  6  1  0  0  0  0 
  2  3  1  0  0  0  0 
  2 11  2  0  0  0  0 
  3  4  1  0  0  0  0 
  3  9  1  0  0  0  0 
  4  5  1  0  0  0  0 
  5  6  1  0  0  0  0 
  5  8  1  0  0  0  0 
  6  7  2  0  0  0  0 
  9 10  2  0  0  0  0 
M  END
> <CDK Fingerprint>
MAAIEAAAAhAQSAABgAAAEAAAARACAAAAAAAAAAAEhQAgYAAAIoAAACAAAAADQCIAQQACAAAAAAAAAsAAAAKAAAAAAUABAQAAAAAAAACAAACAACAAAACAAAAABAAAAAAARCgAAAAIAAAAAAAAAAEEQEAAAFAAAAAAAAAIAwAA

> <ActivityOutcome_CPDBAS_Rat>
inactive

$$$$

  CDK     0721101958

 10 10  0  0  0  0  0  0  0  0999 V2000
    5.9845   -3.4531    0.0000 O   0  0  0  0  0  2  0  0  0  0  0  0
    5.3203   -2.3040    0.0000 N   0  0  0  0  0  3  0  0  0  0  0  0
    3.9917   -2.3040    0.0000 N   0  0  0  0  0  3  0  0  0  0  0  0
    3.3274   -3.4531    0.0000 C   0  0  0  0  0  4  0  0  0  0  0  0
    1.9929   -3.4531    0.0000 C   0  0  0  0  0  4  0  0  0  0  0  0
    1.3286   -2.3040    0.0000 C   0  0  0  0  0  4  0  0  0  0  0  0
    0.0000   -2.3040    0.0000 O   0  0  0  0  0  2  0  0  0  0  0  0
    1.9929   -1.1490    0.0000 N   0  0  0  0  0  3  0  0  0  0  0  0
    3.3274   -1.1490    0.0000 C   0  0  0  0  0  4  0  0  0  0  0  0
    3.9917    0.0000    0.0000 O   0  0  0  0  0  2  0  0  0  0  0  0
  1  2  2  0  0  0  0 
  2  3  1  0  0  0  0 
  3  4  1  0  0  0  0 
  3  9  1  0  0  0  0 
  4  5  1  0  0  0  0 
  5  6  1  0  0  0  0 
  6  7  2  0  0  0  0 
  6  8  1  0  0  0  0 
  8  9  1  0  0  0  0 
  9 10  2  0  0  0  0 
M  END
> <CDK Fingerprint>
MAAIEAAAAhAQSAABgAAAEAAAARACAAAAAAAAAAAEhQAgYAAAIoAAAAAAAAADQCIAQQACAAAAAAAAAsAAAAKAAAAAAUABAQAAAAAAAACAAACAACAAAACAAAAABAAAAAAARCgAAAAIAAAAAAAAAAEEQEAAAFAAAAAAAAAAAwAA

> <ActivityOutcome_CPDBAS_Rat>
active

> <TD50_Rat_mmol>
0.000687

$$$$

  CDK     0721101958

 12 11  0  0  0  0  0  0  0  0999 V2000
    3.3277   -1.1482    0.0000 N   0  0  0  0  0  3  0  0  0  0  0  0
    3.9859   -2.3038    0.0000 C   0  0  0  0  0  4  0  0  0  0  0  0
    5.3169   -2.3038    0.0000 C   0  0  0  0  0  4  0  0  0  0  0  0
    5.9825   -1.1482    0.0000 C   0  0  0  0  0  4  0  0  0  0  0  0
    7.3135   -1.1482    0.0000 O   0  0  0  0  0  2  0  0  0  0  0  0
    5.9825   -3.4520    0.0000 O   0  0  0  0  0  2  0  0  0  0  0  0
    1.9966   -1.1482    0.0000 C   0  0  0  0  0  4  0  0  0  0  0  0
    1.3311   -2.3038    0.0000 C   0  0  0  0  0  4  0  0  0  0  0  0
    1.9966   -3.4520    0.0000 O   0  0  0  0  0  2  0  0  0  0  0  0
    0.0000   -2.3038    0.0000 C   0  0  0  0  0  4  0  0  0  0  0  0
    3.9859    0.0000    0.0000 N   0  0  0  0  0  3  0  0  0  0  0  0
    5.3169    0.0000    0.0000 O   0  0  0  0  0  2  0  0  0  0  0  0
  1  2  1  0  0  0  0 
  1  7  1  0  0  0  0 
  1 11  1  0  0  0  0 
  2  3  1  0  0  0  0 
  3  4  1  0  0  0  0 
  3  6  1  0  0  0  0 
  4  5  1  0  0  0  0 
  7  8  1  0  0  0  0 
  8  9  1  0  0  0  0 
  8 10  1  0  0  0  0 
 11 12  2  0  0  0  0 
M  END
> <CDK Fingerprint>
EAAAAAAAAgAAAgAFgAAAEAIAABgAAAAAAAAAAAAEAQAAYAAEAAAAAAAAAAAAGCAAEQAAAAAAAAAAAMAAAAAAAAAAAAAAAAAAAAAAAACAAAAAaiAAAAAAABAAAAAAAAAABCAAAAAIAARAAAAAAAAAAAAAAABBAAAAAAAAAwAA

> <ActivityOutcome_CPDBAS_Rat>
active

> <TD50_Rat_mmol>
0.0003

$$$$

  CDK     0721101958

 12 11  0  0  0  0  0  0  0  0999 V2000
    3.3277   -1.1482    0.0000 N   0  0  0  0  0  3  0  0  0  0  0  0
    3.9859   -2.3038    0.0000 C   0  0  0  0  0  4  0  0  0  0  0  0
    5.3169   -2.3038    0.0000 C   0  0  0  0  0  4  0  0  0  0  0  0
    5.9825   -1.1482    0.0000 C   0  0  0  0  0  4  0  0  0  0  0  0
    7.3135   -1.1482    0.0000 O   0  0  0  0  0  2  0  0  0  0  0  0
    5.9825   -3.4520    0.0000 O   0  0  0  0  0  2  0  0  0  0  0  0
    1.9966   -1.1482    0.0000 C   0  0  0  0  0  4  0  0  0  0  0  0
    1.3311   -2.3038    0.0000 C   0  0  0  0  0  4  0  0  0  0  0  0
    1.9966   -3.4520    0.0000 C   0  0  0  0  0  4  0  0  0  0  0  0
    0.0000   -2.3038    0.0000 O   0  0  0  0  0  2  0  0  0  0  0  0
    3.9859    0.0000    0.0000 N   0  0  0  0  0  3  0  0  0  0  0  0
    5.3169    0.0000    0.0000 O   0  0  0  0  0  2  0  0  0  0  0  0
  1  2  1  0  0  0  0 
  1  7  1  0  0  0  0 
  1 11  1  0  0  0  0 
  2  3  1  0  0  0  0 
  3  4  1  0  0  0  0 
  3  6  1  0  0  0  0 
  4  5  1  0  0  0  0 
  7  8  1  0  0  0  0 
  8  9  1  0  0  0  0 
  8 10  2  0  0  0  0 
 11 12  2  0  0  0  0 
M  END
> <CDK Fingerprint>
EAAAAAAAAgAAAoABgAAAEQIAABgAAAAAAQAAAAAEAQAAYAAEAAAAAFAAAAAAGCAAEQAAAAAAAAAAAMAAAAAAAAAAAAAAAAAAAAAAAACAAAAAaiAAAAAAABAAAAAAAAAARCAAAAAIAAQAAAAAAACAAAIAABBBAAAAAAAAAwAA

> <ActivityOutcome_CPDBAS_Rat>
active

> <TD50_Rat_mmol>
0.0002

$$$$

  CDK     0721101958

 11 10  0  0  0  0  0  0  0  0999 V2000
    3.9901   -2.3031    0.0000 N   0  0  0  0  0  3  0  0  0  0  0  0
    3.3261   -1.1486    0.0000 C   0  0  0  0  0  4  0  0  0  0  0  0
    1.9921   -1.1486    0.0000 C   0  0  0  0  0  4  0  0  0  0  0  0
    1.3280   -2.3031    0.0000 C   0  0  0  0  0  4  0  0  0  0  0  0
    0.0000   -2.3031    0.0000 O   0  0  0  0  0  2  0  0  0  0  0  0
    1.3280    0.0000    0.0000 O   0  0  0  0  0  2  0  0  0  0  0  0
    5.3182   -2.3031    0.0000 C   0  0  0  0  0  4  0  0  0  0  0  0
    5.9822   -1.1486    0.0000 C   0  0  0  0  0  4  0  0  0  0  0  0
    5.3182    0.0000    0.0000 O   0  0  0  0  0  2  0  0  0  0  0  0
    3.3261   -3.4517    0.0000 N   0  0  0  0  0  3  0  0  0  0  0  0
    1.9921   -3.4517    0.0000 O   0  0  0  0  0  2  0  0  0  0  0  0
  1  2  1  0  0  0  0 
  1  7  1  0  0  0  0 
  1 10  1  0  0  0  0 
  2  3  1  0  0  0  0 
  3  4  1  0  0  0  0 
  3  6  1  0  0  0  0 
  4  5  1  0  0  0  0 
  7  8  1  0  0  0  0 
  8  9  1  0  0  0  0 
 10 11  2  0  0  0  0 
M  END
> <CDK Fingerprint>
EAAAAAAAAgAAAgAFgAAAEAAAABgAAAAAAAAAAAAEAQAAYAAAAAAAAAAAAAAAGCAAEQAAAAAAAAAAAMAAAAAAAAAAAAAAAAAAAAAAAACAAAAAaiAAAAAAABAAAAAAAAAABCAAAAAIAARAAAAAAAAAAAAAAABBAAAAAAAAAwAA

> <ActivityOutcome_CPDBAS_Rat>
active

> <TD50_Rat_mmol>
0.0364

$$$$

  CDK     0721101958

 18 19  0  0  0  0  0  0  0  0999 V2000
    6.9087   -3.3254    0.0000 N   0  0  0  0  0  3  0  0  0  0  0  0
    5.7572   -3.9886    0.0000 C   0  0  0  0  0  4  0  0  0  0  0  0
    4.6058   -3.3254    0.0000 C   0  0  0  0  0  4  0  0  0  0  0  0
    4.6058   -1.9897    0.0000 N   0  0  0  0  0  3  0  0  0  0  0  0
    5.7572   -1.3265    0.0000 C   0  0  0  0  0  4  0  0  0  0  0  0
    6.9087   -1.9897    0.0000 C   0  0  0  0  0  4  0  0  0  0  0  0
    5.7572    0.0000    0.0000 C   0  0  0  0  0  4  0  0  0  0  0  0
    3.4543   -1.3265    0.0000 C   0  0  0  0  0  4  0  0  0  0  0  0
    2.3029   -1.9897    0.0000 C   0  0  0  0  0  4  0  0  0  0  0  0
    2.3029   -3.3254    0.0000 C   0  0  0  0  0  4  0  0  0  0  0  0
    1.1514   -3.9886    0.0000 C   0  0  0  0  0  4  0  0  0  0  0  0
    0.0000   -3.3254    0.0000 C   0  0  0  0  0  4  0  0  0  0  0  0
    0.0000   -1.9897    0.0000 C   0  0  0  0  0  4  0  0  0  0  0  0
    1.1514   -1.3265    0.0000 C   0  0  0  0  0  4  0  0  0  0  0  0
    3.4543    0.0000    0.0000 O   0  0  0  0  0  2  0  0  0  0  0  0
    3.4543   -3.9886    0.0000 C   0  0  0  0  0  4  0  0  0  0  0  0
    8.0601   -3.9886    0.0000 N   0  0  0  0  0  3  0  0  0  0  0  0
    9.2116   -3.3254    0.0000 O   0  0  0  0  0  2  0  0  0  0  0  0
  1  2  1  0  0  0  0 
  1  6  1  0  0  0  0 
  1 17  1  0  0  0  0 
  2  3  1  0  0  0  0 
  3  4  1  0  0  0  0 
  3 16  1  0  0  0  0 
  4  5  1  0  0  0  0 
  4  8  1  0  0  0  0 
  5  6  1  0  0  0  0 
  5  7  1  0  0  0  0 
  8  9  1  0  0  0  0 
  8 15  2  0  0  0  0 
  9 10  1  0  0  0  0 
  9 14  2  0  0  0  0 
 10 11  2  0  0  0  0 
 11 12  1  0  0  0  0 
 12 13  2  0  0  0  0 
 13 14  1  0  0  0  0 
 17 18  2  0  0  0  0 
M  END
> <CDK Fingerprint>
EAAAAABAQhCAAAABmAAAIAAAABgCCAAAAAAAAACkARABaAAEBBQCAAAQAAABACAAERQAQAAAQAAAAMAAACCAhCAAAACAgEAAQAAAAACAAgAAACAAAAABgABAAACIBCAARCBAIAQMEAAgAkAAAABAAAJEgFIIQAAAAAAgAwAA

> <ActivityOutcome_CPDBAS_Rat>
active

> <TD50_Rat_mmol>
0.0391

$$$$

  CDK     0721101958

 12 11  0  0  0  0  0  0  0  0999 V2000
    3.9895   -4.6118    0.0000 O   0  0  0  0  0  2  0  0  0  0  0  0
    2.6620   -4.6118    0.0000 C   0  0  0  0  0  4  0  0  0  0  0  0
    1.9982   -5.7596    0.0000 N   0  0  0  0  0  3  0  0  0  0  0  0
    2.6620   -6.9143    0.0000 C   0  0  0  0  0  4  0  0  0  0  0  0
    3.9895   -6.9143    0.0000 C   0  0  0  0  0  4  0  0  0  0  0  0
    4.6602   -5.7596    0.0000 O   0  0  0  0  0  2  0  0  0  0  0  0
    0.6638   -5.7596    0.0000 N   0  0  0  0  0  3  0  0  0  0  0  0
    0.0000   -4.6118    0.0000 O   0  0  0  0  0  2  0  0  0  0  0  0
    1.9982   -3.4571    0.0000 N   0  0  0  0  0  3  0  0  0  0  0  0
    2.6620   -2.3025    0.0000 C   0  0  0  0  0  4  0  0  0  0  0  0
    1.9982   -1.1547    0.0000 C   0  0  0  0  0  4  0  0  0  0  0  0
    2.6620    0.0000    0.0000 Cl  0  0  0  0  0  1  0  0  0  0  0  0
  1  2  2  0  0  0  0 
  2  3  1  0  0  0  0 
  2  9  1  0  0  0  0 
  3  4  1  0  0  0  0 
  3  7  1  0  0  0  0 
  4  5  1  0  0  0  0 
  5  6  1  0  0  0  0 
  7  8  2  0  0  0  0 
  9 10  1  0  0  0  0 
 10 11  1  0  0  0  0 
 11 12  1  0  0  0  0 
M  END
> <CDK Fingerprint>
CAAAAAIQAEoAAIAAAAALAAAIAAABAAACAAAABAUAIOAAAALAAAAAAAAAAQggAAEAAiAAIAAAAACAAAADgAAACAAAAAEQAAAAAAAAgAAAAGAAAAAAAAAQAAAAAAEAAEQgAAAAAAAAAAAAAAAAAABAAABABAAAgAAAAAMAAA==

> <ActivityOutcome_CPDBAS_Rat>
active

> <TD50_Rat_mmol>
0.00182

$$$$

  CDK     0721101958

  9  9  0  0  0  0  0  0  0  0999 V2000
    2.3042    0.0000    0.0000 C   0  0  0  0  0  4  0  0  0  0  0  0
    3.4563   -0.6682    0.0000 C   0  0  0  0  0  4  0  0  0  0  0  0
    3.4563   -1.9989    0.0000 N   0  0  0  0  0  3  0  0  0  0  0  0
    2.3042   -2.6614    0.0000 C   0  0  0  0  0  4  0  0  0  0  0  0
    1.1521   -1.9989    0.0000 C   0  0  0  0  0  4  0  0  0  0  0  0
    1.1521   -0.6682    0.0000 O   0  0  0  0  0  2  0  0  0  0  0  0
    0.0000   -2.6614    0.0000 O   0  0  0  0  0  2  0  0  0  0  0  0
    4.6084   -2.6614    0.0000 N   0  0  0  0  0  3  0  0  0  0  0  0
    5.7605   -1.9989    0.0000 O   0  0  0  0  0  2  0  0  0  0  0  0
  1  2  1  0  0  0  0 
  1  6  1  0  0  0  0 
  2  3  1  0  0  0  0 
  3  4  1  0  0  0  0 
  3  8  1  0  0  0  0 
  4  5  1  0  0  0  0 
  5  6  1  0  0  0  0 
  5  7  1  0  0  0  0 
  8  9  2  0  0  0  0 
M  END
> <CDK Fingerprint>
EAABAAAAAgBAAwAQgAABAAAAAAgAAIAAAAAAAAAEAQIAZAiAAAABQAAAAAAACCACAQAAAAAAAAAAAIAAAAAAAAAAAAAAAAAAAAAAAACAAAAAYAAAAAAAABEAAAAAAAQABGAAAAAAAABAAAAAAAAAAAAAAAABAAAAAAAAAwAA

> <ActivityOutcome_CPDBAS_Rat>
inactive

$$$$

  CDK     0721101958

 13 12  0  0  0  0  0  0  0  0999 V2000
    3.3259   -3.4535    0.0000 O   0  0  0  0  0  2  0  0  0  0  0  0
    3.9879   -2.2970    0.0000 C   0  0  0  0  0  4  0  0  0  0  0  0
    3.3259   -1.1485    0.0000 N   0  0  0  0  0  3  0  0  0  0  0  0
    1.9939   -1.1485    0.0000 C   0  0  0  0  0  4  0  0  0  0  0  0
    1.3320   -2.2970    0.0000 C   0  0  0  0  0  4  0  0  0  0  0  0
    1.9939   -3.4535    0.0000 C   0  0  0  0  0  4  0  0  0  0  0  0
    0.0000   -2.2970    0.0000 O   0  0  0  0  0  2  0  0  0  0  0  0
    3.9879    0.0000    0.0000 N   0  0  0  0  0  3  0  0  0  0  0  0
    5.3199    0.0000    0.0000 O   0  0  0  0  0  2  0  0  0  0  0  0
    5.3199   -2.2970    0.0000 N   0  0  0  0  0  3  0  0  0  0  0  0
    5.9818   -3.4535    0.0000 C   0  0  0  0  0  4  0  0  0  0  0  0
    7.3138   -3.4535    0.0000 C   0  0  0  0  0  4  0  0  0  0  0  0
    7.9758   -4.6020    0.0000 Cl  0  0  0  0  0  1  0  0  0  0  0  0
  1  2  2  0  0  0  0 
  2  3  1  0  0  0  0 
  2 10  1  0  0  0  0 
  3  4  1  0  0  0  0 
  3  8  1  0  0  0  0 
  4  5  1  0  0  0  0 
  5  6  1  0  0  0  0 
  5  7  1  0  0  0  0 
  8  9  2  0  0  0  0 
 10 11  1  0  0  0  0 
 11 12  1  0  0  0  0 
 12 13  1  0  0  0  0 
M  END
> <CDK Fingerprint>
CAAAAAIQAEoAAYAAAAALAAAYAAABAAAiAAAABAUAIOAAAALAgAAAAAAAAQggAEEAAiAAIAAAAADAAAADgAAACAAAAAEQAAAAAAAAgAAAAGAgAAAAAAAQAAAAAAEAAEQgAAAACAAAAAAAAAAAAABAAABABAAAgAAACAMAAA==

> <ActivityOutcome_CPDBAS_Rat>
active

> <TD50_Rat_mmol>
0.00416

$$$$

  CDK     0721101958

 10  9  0  0  0  0  0  0  0  0999 V2000
    1.9973   -3.4592    0.0000 N   0  0  0  0  0  3  0  0  0  0  0  0
    2.6584   -2.3046    0.0000 C   0  0  0  0  0  4  0  0  0  0  0  0
    1.9973   -1.1546    0.0000 C   0  0  0  0  0  4  0  0  0  0  0  0
    0.6658   -1.1546    0.0000 C   0  0  0  0  0  4  0  0  0  0  0  0
    2.6584    0.0000    0.0000 O   0  0  0  0  0  2  0  0  0  0  0  0
    2.6584   -4.6091    0.0000 C   0  0  0  0  0  4  0  0  0  0  0  0
    3.9899   -4.6091    0.0000 C   0  0  0  0  0  4  0  0  0  0  0  0
    4.6557   -3.4592    0.0000 O   0  0  0  0  0  2  0  0  0  0  0  0
    0.6658   -3.4592    0.0000 N   0  0  0  0  0  3  0  0  0  0  0  0
    0.0000   -2.3046    0.0000 O   0  0  0  0  0  2  0  0  0  0  0  0
  1  2  1  0  0  0  0 
  1  6  1  0  0  0  0 
  1  9  1  0  0  0  0 
  2  3  1  0  0  0  0 
  3  4  1  0  0  0  0 
  3  5  1  0  0  0  0 
  6  7  1  0  0  0  0 
  7  8  1  0  0  0  0 
  9 10  2  0  0  0  0 
M  END
> <CDK Fingerprint>
EAAAAAAAAgAAAgABgAAAAAAAABgAAAAAAAAAAAAEAQAAYAAAAAAAAAAAAAAACCAAEQAAAAAAAAAAAMAAAAAAAAAAAAAAAAAAAAAAAACAAAAAYCAAAAAAABAAAAAAAAAABCAAAAAIAARAAAAAAAAAAAAAAAABAAAAAAAAAwAA

> <ActivityOutcome_CPDBAS_Rat>
active

> <TD50_Rat_mmol>
0.00688

$$$$

  CDK     0721101958

  8  8  0  0  0  0  0  0  0  0999 V2000
    1.3317   -1.0767    0.0000 C   0  0  0  0  0  4  0  0  0  0  0  0
    2.1137    0.0000    0.0000 C   0  0  0  0  0  4  0  0  0  0  0  0
    3.3774   -0.4080    0.0000 C   0  0  0  0  0  4  0  0  0  0  0  0
    3.3774   -1.7397    0.0000 N   0  0  0  0  0  3  0  0  0  0  0  0
    2.1137   -2.1534    0.0000 C   0  0  0  0  0  4  0  0  0  0  0  0
    4.4541   -2.5217    0.0000 N   0  0  0  0  0  3  0  0  0  0  0  0
    5.6668   -1.9834    0.0000 O   0  0  0  0  0  2  0  0  0  0  0  0
    0.0000   -1.0767    0.0000 O   0  0  0  0  0  2  0  0  0  0  0  0
  1  2  1  0  0  0  0 
  1  5  1  0  0  0  0 
  1  8  1  0  0  0  0 
  2  3  1  0  0  0  0 
  3  4  1  0  0  0  0 
  4  5  1  0  0  0  0 
  4  6  1  0  0  0  0 
  6  7  2  0  0  0  0 
M  END
> <CDK Fingerprint>
EAAAAAAAAgAAAgABgAABEAAAABgAAAAAAAAAAAAEAQAAYAAAAAAAAAAAAAAAGCAAAQAAAAAAAAAAAMAAAAAAAAAAAAAAQAAAAAAAAACAAAAAaiAAAAAAABAAAAAAAAAABCAAAAAIAAAAAAAQAAAAAAAAAABBAAAAAAAAAwAA

> <ActivityOutcome_CPDBAS_Rat>
active

> <TD50_Rat_mmol>
0.0659

$$$$

  CDK     0721101958

 10  9  0  0  0  0  0  0  0  0999 V2000
    1.1521    0.0000    0.0000 O   0  0  0  0  0  2  0  0  0  0  0  0
    2.3042   -0.6682    0.0000 C   0  0  0  0  0  4  0  0  0  0  0  0
    2.3042   -1.9989    0.0000 N   0  0  0  0  0  3  0  0  0  0  0  0
    3.4563   -2.6614    0.0000 C   0  0  0  0  0  4  0  0  0  0  0  0
    4.6084   -1.9989    0.0000 C   0  0  0  0  0  4  0  0  0  0  0  0
    4.6084   -0.6682    0.0000 C   0  0  0  0  0  4  0  0  0  0  0  0
    5.7605   -2.6614    0.0000 C   0  0  0  0  0  4  0  0  0  0  0  0
    1.1521   -2.6614    0.0000 N   0  0  0  0  0  3  0  0  0  0  0  0
    0.0000   -1.9989    0.0000 O   0  0  0  0  0  2  0  0  0  0  0  0
    3.4563    0.0000    0.0000 N   0  0  0  0  0  3  0  0  0  0  0  0
  1  2  2  0  0  0  0 
  2  3  1  0  0  0  0 
  2 10  1  0  0  0  0 
  3  4  1  0  0  0  0 
  3  8  1  0  0  0  0 
  4  5  1  0  0  0  0 
  5  6  1  0  0  0  0 
  5  7  1  0  0  0  0 
  8  9  2  0  0  0  0 
M  END
> <CDK Fingerprint>
AhAASAABgAAAAAAAABAAAAAAAAAAAAAEBQAAYAAAAoAAAAAAAAABACAAQQACAAAAAAAAAMAAAAKAAAAAAAAAAAAAAAAAAACAAAAAACAAAAAAAAAAAAAAAAAARCAAAAAIAAAAAAAAAAAAAAAAAEAAAAAAAAAAAwAA

> <ActivityOutcome_CPDBAS_Rat>
active

> <TD50_Rat_mmol>
0.0326

$$$$

  CDK     0721101958

 16 15  0  0  0  0  0  0  0  0999 V2000
    0.0000   -1.3396    0.0000 O   0  0  0  0  0  2  0  0  0  0  0  0
    1.1460   -2.0014    0.0000 N   0  0  0  0  0  3  0  0  0  0  0  0
    2.3081   -1.3396    0.0000 N   0  0  0  0  0  3  0  0  0  0  0  0
    2.3081    0.0000    0.0000 C   0  0  0  0  0  4  0  0  0  0  0  0
    3.4540   -2.0014    0.0000 C   0  0  0  0  0  4  0  0  0  0  0  0
    4.6161   -1.3396    0.0000 C   0  0  0  0  0  4  0  0  0  0  0  0
    5.7621   -2.0014    0.0000 C   0  0  0  0  0  4  0  0  0  0  0  0
    6.9242   -1.3396    0.0000 C   0  0  0  0  0  4  0  0  0  0  0  0
    8.0702   -2.0014    0.0000 C   0  0  0  0  0  4  0  0  0  0  0  0
    9.2161   -1.3396    0.0000 C   0  0  0  0  0  4  0  0  0  0  0  0
   10.3782   -2.0014    0.0000 C   0  0  0  0  0  4  0  0  0  0  0  0
   11.5242   -1.3396    0.0000 C   0  0  0  0  0  4  0  0  0  0  0  0
   12.6863   -2.0014    0.0000 C   0  0  0  0  0  4  0  0  0  0  0  0
   13.8323   -1.3396    0.0000 C   0  0  0  0  0  4  0  0  0  0  0  0
   14.9944   -2.0014    0.0000 C   0  0  0  0  0  4  0  0  0  0  0  0
   16.1403   -1.3396    0.0000 C   0  0  0  0  0  4  0  0  0  0  0  0
  1  2  2  0  0  0  0 
  2  3  1  0  0  0  0 
  3  4  1  0  0  0  0 
  3  5  1  0  0  0  0 
  5  6  1  0  0  0  0 
  6  7  1  0  0  0  0 
  7  8  1  0  0  0  0 
  8  9  1  0  0  0  0 
  9 10  1  0  0  0  0 
 10 11  1  0  0  0  0 
 11 12  1  0  0  0  0 
 12 13  1  0  0  0  0 
 13 14  1  0  0  0  0 
 14 15  1  0  0  0  0 
 15 16  1  0  0  0  0 
M  END
> <CDK Fingerprint>
AgAAAAABhAABAAAAABAAAEAAAAAAAAAEAQEAYAAAAAAAAAAAAAAAECAAAQAAAAAAAAAAAMAAAAAAAAAAAAAAQAAAAAAAAAGAAAAEACAAQAAAAAAAAAEAAABABCAAAUAIACAIIAAQAAAAAAAAAQAAAAgABAAACwAA

> <ActivityOutcome_CPDBAS_Rat>
active

> <TD50_Rat_mmol>
0.00235

$$$$

  CDK     0721101958

 11 11  0  0  0  0  0  0  0  0999 V2000
    3.9859    0.0000    0.0000 C   0  0  0  0  0  4  0  0  0  0  0  0
    5.3169    0.0000    0.0000 C   0  0  0  0  0  4  0  0  0  0  0  0
    5.9825   -1.1555    0.0000 C   0  0  0  0  0  4  0  0  0  0  0  0
    5.3169   -2.3038    0.0000 C   0  0  0  0  0  4  0  0  0  0  0  0
    3.9859   -2.3038    0.0000 C   0  0  0  0  0  4  0  0  0  0  0  0
    3.3277   -1.1555    0.0000 C   0  0  0  0  0  4  0  0  0  0  0  0
    1.9966   -1.1555    0.0000 N   0  0  0  0  0  3  0  0  0  0  0  0
    1.3311   -2.3038    0.0000 N   0  0  0  0  0  3  0  0  0  0  0  0
    0.0000   -2.3038    0.0000 O   0  0  0  0  0  2  0  0  0  0  0  0
    1.3311    0.0000    0.0000 C   0  0  0  0  0  4  0  0  0  0  0  0
    7.3135   -1.1555    0.0000 F   0  0  0  0  0  1  0  0  0  0  0  0
  1  2  2  0  0  0  0 
  1  6  1  0  0  0  0 
  2  3  1  0  0  0  0 
  3  4  2  0  0  0  0 
  3 11  1  0  0  0  0 
  4  5  1  0  0  0  0 
  5  6  2  0  0  0  0 
  6  7  1  0  0  0  0 
  7  8  1  0  0  0  0 
  7 10  1  0  0  0  0 
  8  9  2  0  0  0  0 
M  END
> <CDK Fingerprint>
CQAAAAAgAAgAAAAAAEAAAIAAAABBAAAAAAAESAYgAABgEAgBACAAAEAAAAAAAIAFAAAAAgBAAAAAgAQAAEAAAAAAAAAAAAAAAAAAAAAAAAAIIAAAAAAAAAAAAAAAIQAEIAAgAAAAAAACAAAAAAAAAACAAAAAAAAAJAADEAA=

> <ActivityOutcome_CPDBAS_Rat>
active

> <TD50_Rat_mmol>
0.00165

$$$$

  CDK     0721101958

 13 13  0  0  0  0  0  0  0  0999 V2000
    1.3318    0.0000    0.0000 C   0  0  0  0  0  4  0  0  0  0  0  0
    1.9937   -1.1563    0.0000 N   0  0  0  0  0  3  0  0  0  0  0  0
    1.3318   -2.3047    0.0000 N   0  0  0  0  0  3  0  0  0  0  0  0
    0.0000   -2.3047    0.0000 O   0  0  0  0  0  2  0  0  0  0  0  0
    3.3254   -1.1563    0.0000 C   0  0  0  0  0  4  0  0  0  0  0  0
    3.9873    0.0000    0.0000 C   0  0  0  0  0  4  0  0  0  0  0  0
    5.3191    0.0000    0.0000 C   0  0  0  0  0  4  0  0  0  0  0  0
    5.9810   -1.1563    0.0000 C   0  0  0  0  0  4  0  0  0  0  0  0
    5.3191   -2.3047    0.0000 C   0  0  0  0  0  4  0  0  0  0  0  0
    3.9873   -2.3047    0.0000 C   0  0  0  0  0  4  0  0  0  0  0  0
    7.3127   -1.1563    0.0000 N   0  0  0  0  0  4  0  0  0  0  0  0
    7.9746    0.0000    0.0000 O   0  0  0  0  0  1  0  0  0  0  0  0
    7.9746   -2.3047    0.0000 O   0  0  0  0  0  2  0  0  0  0  0  0
  1  2  1  0  0  0  0 
  2  3  1  0  0  0  0 
  2  5  1  0  0  0  0 
  3  4  2  0  0  0  0 
  5  6  2  0  0  0  0 
  5 10  1  0  0  0  0 
  6  7  1  0  0  0  0 
  7  8  2  0  0  0  0 
  8  9  1  0  0  0  0 
  8 11  1  0  0  0  0 
  9 10  2  0  0  0  0 
 11 12  1  0  0  0  0 
 11 13  2  0  0  0  0 
M  CHG  1  11   1
M  CHG  1  12  -1
M  END
> <CDK Fingerprint>
JAAACBACAAAgAAgIAAAAAEAIAIAAABhAEAABAAAESAcAAABgAA0AAAAAAEAAAAAAACQFAAIAAgBABAAAgAQAAEAAAAAAAAAAAAAAAAAAgAAAAAAIIAAAAAAAAAAAEAAAIQAEIAAgAAAAQCACABAAAAAAAACAAAAAAAAAgIADEIA=

> <ActivityOutcome_CPDBAS_Rat>
inactive

$$$$

  CDK     0721101958

 12 12  0  0  0  0  0  0  0  0999 V2000
    7.3106   -1.1480    0.0000 C   0  0  0  0  0  4  0  0  0  0  0  0
    7.9723   -2.3040    0.0000 C   0  0  0  0  0  4  0  0  0  0  0  0
    7.3106   -3.4520    0.0000 C   0  0  0  0  0  4  0  0  0  0  0  0
    5.9793   -3.4520    0.0000 C   0  0  0  0  0  4  0  0  0  0  0  0
    5.3175   -2.3040    0.0000 C   0  0  0  0  0  4  0  0  0  0  0  0
    5.9793   -1.1480    0.0000 C   0  0  0  0  0  4  0  0  0  0  0  0
    3.9862   -2.3040    0.0000 C   0  0  0  0  0  4  0  0  0  0  0  0
    3.3245   -1.1480    0.0000 C   0  0  0  0  0  4  0  0  0  0  0  0
    1.9931   -1.1480    0.0000 N   0  0  0  0  0  3  0  0  0  0  0  0
    1.3314    0.0000    0.0000 C   0  0  0  0  0  4  0  0  0  0  0  0
    1.3314   -2.3040    0.0000 N   0  0  0  0  0  3  0  0  0  0  0  0
    0.0000   -2.3040    0.0000 O   0  0  0  0  0  2  0  0  0  0  0  0
  1  2  2  0  0  0  0 
  1  6  1  0  0  0  0 
  2  3  1  0  0  0  0 
  3  4  2  0  0  0  0 
  4  5  1  0  0  0  0 
  5  6  2  0  0  0  0 
  5  7  1  0  0  0  0 
  7  8  1  0  0  0  0 
  8  9  1  0  0  0  0 
  9 10  1  0  0  0  0 
  9 11  1  0  0  0  0 
 11 12  2  0  0  0  0 
M  END
> <CDK Fingerprint>
AIICAAAQAAGAAAAAAAgAEAAAAQIAAAAABAQJAABgAAAIAAAAAAAAAgAAIAABAAAABABAAAAAwAAAAAAEDAAAAAAAAAACAAAAAIAAAAAAIAAAAACAAAAAAIAAMAAEIEAkAAgAAAACQAAEAAAAFACAAAAEAAAAAAIDAAA=

> <ActivityOutcome_CPDBAS_Rat>
active

> <TD50_Rat_mmol>
0.0000608

$$$$

  CDK     0721101958

 18 17  0  0  0  0  0  0  0  0999 V2000
    2.3052   -1.3278    0.0000 N   0  0  0  0  0  3  0  0  0  0  0  0
    3.4670   -1.9917    0.0000 C   0  0  0  0  0  4  0  0  0  0  0  0
    4.6104   -1.3278    0.0000 C   0  0  0  0  0  4  0  0  0  0  0  0
    5.7538   -1.9917    0.0000 C   0  0  0  0  0  4  0  0  0  0  0  0
    6.9156   -1.3278    0.0000 C   0  0  0  0  0  4  0  0  0  0  0  0
    8.0774   -1.9917    0.0000 C   0  0  0  0  0  4  0  0  0  0  0  0
    9.2208   -1.3278    0.0000 C   0  0  0  0  0  4  0  0  0  0  0  0
   10.3642   -1.9917    0.0000 C   0  0  0  0  0  4  0  0  0  0  0  0
   11.5260   -1.3278    0.0000 C   0  0  0  0  0  4  0  0  0  0  0  0
   12.6878   -1.9917    0.0000 C   0  0  0  0  0  4  0  0  0  0  0  0
   13.8312   -1.3278    0.0000 C   0  0  0  0  0  4  0  0  0  0  0  0
   14.9746   -1.9917    0.0000 C   0  0  0  0  0  4  0  0  0  0  0  0
   16.1364   -1.3278    0.0000 C   0  0  0  0  0  4  0  0  0  0  0  0
   17.2798   -1.9917    0.0000 C   0  0  0  0  0  4  0  0  0  0  0  0
   18.4416   -1.3278    0.0000 C   0  0  0  0  0  4  0  0  0  0  0  0
    2.3052    0.0000    0.0000 C   0  0  0  0  0  4  0  0  0  0  0  0
    1.1434   -1.9917    0.0000 N   0  0  0  0  0  3  0  0  0  0  0  0
    0.0000   -1.3278    0.0000 O   0  0  0  0  0  2  0  0  0  0  0  0
  1  2  1  0  0  0  0 
  1 16  1  0  0  0  0 
  1 17  1  0  0  0  0 
  2  3  1  0  0  0  0 
  3  4  1  0  0  0  0 
  4  5  1  0  0  0  0 
  5  6  1  0  0  0  0 
  6  7  1  0  0  0  0 
  7  8  1  0  0  0  0 
  8  9  1  0  0  0  0 
  9 10  1  0  0  0  0 
 10 11  1  0  0  0  0 
 11 12  1  0  0  0  0 
 12 13  1  0  0  0  0 
 13 14  1  0  0  0  0 
 14 15  1  0  0  0  0 
 17 18  2  0  0  0  0 
M  END
> <CDK Fingerprint>
AgAAAAABhAABAAAAABAAAEAAAAAAAAAEAQEAYAAAAAAAAAAAAAAAECAAAQAAAAAAAAAAAMAAAAAAAAAAAAAAQAAAAAAAAAGAAAAEACAAQAAAAAAAAAEAAABABCAAAUAIACAIIAAQAAAAAAAAAQAAAAgABAAACwAA

> <ActivityOutcome_CPDBAS_Rat>
active

> <TD50_Rat_mmol>
0.00643

$$$$

  CDK     0721101958

 14 13  0  0  0  0  0  0  0  0999 V2000
    2.3099   -1.3278    0.0000 N   0  0  0  0  0  3  0  0  0  0  0  0
    3.4579   -1.9918    0.0000 C   0  0  0  0  0  4  0  0  0  0  0  0
    4.6059   -1.3278    0.0000 C   0  0  0  0  0  4  0  0  0  0  0  0
    5.7678   -1.9918    0.0000 C   0  0  0  0  0  4  0  0  0  0  0  0
    6.9158   -1.3278    0.0000 C   0  0  0  0  0  4  0  0  0  0  0  0
    8.0639   -1.9918    0.0000 C   0  0  0  0  0  4  0  0  0  0  0  0
    9.2257   -1.3278    0.0000 C   0  0  0  0  0  4  0  0  0  0  0  0
   10.3738   -1.9918    0.0000 C   0  0  0  0  0  4  0  0  0  0  0  0
   11.5218   -1.3278    0.0000 C   0  0  0  0  0  4  0  0  0  0  0  0
   12.6836   -1.9918    0.0000 C   0  0  0  0  0  4  0  0  0  0  0  0
   13.8317   -1.3278    0.0000 C   0  0  0  0  0  4  0  0  0  0  0  0
    2.3099    0.0000    0.0000 C   0  0  0  0  0  4  0  0  0  0  0  0
    1.1480   -1.9918    0.0000 N   0  0  0  0  0  3  0  0  0  0  0  0
    0.0000   -1.3278    0.0000 O   0  0  0  0  0  2  0  0  0  0  0  0
  1  2  1  0  0  0  0 
  1 12  1  0  0  0  0 
  1 13  1  0  0  0  0 
  2  3  1  0  0  0  0 
  3  4  1  0  0  0  0 
  4  5  1  0  0  0  0 
  5  6  1  0  0  0  0 
  6  7  1  0  0  0  0 
  7  8  1  0  0  0  0 
  8  9  1  0  0  0  0 
  9 10  1  0  0  0  0 
 10 11  1  0  0  0  0 
 13 14  2  0  0  0  0 
M  END
> <CDK Fingerprint>
AgAAAAABhAABAAAAABAAAEAAAAAAAAAEAQEAYAAAAAAAAAAAAAAAECAAAQAAAAAAAAAAAMAAAAAAAAAAAAAAQAAAAAAAAAGAAAAEACAAQAAAAAAAAAEAAABABCAAAUAIACAIIAAQAAAAAAAAAQAAAAgABAAACwAA

> <ActivityOutcome_CPDBAS_Rat>
active

> <TD50_Rat_mmol>
0.00629

$$$$

  CDK     0721101958

  7  6  0  0  0  0  0  0  0  0999 V2000
    1.3291    0.0000    0.0000 C   0  0  0  0  0  4  0  0  0  0  0  0
    1.9956   -1.1495    0.0000 N   0  0  0  0  0  3  0  0  0  0  0  0
    3.3247   -1.1495    0.0000 C   0  0  0  0  0  4  0  0  0  0  0  0
    3.9912   -2.3029    0.0000 O   0  0  0  0  0  2  0  0  0  0  0  0
    3.9912    0.0000    0.0000 N   0  0  0  0  0  3  0  0  0  0  0  0
    1.3291   -2.3029    0.0000 N   0  0  0  0  0  3  0  0  0  0  0  0
    0.0000   -2.3029    0.0000 O   0  0  0  0  0  2  0  0  0  0  0  0
  1  2  1  0  0  0  0 
  2  3  1  0  0  0  0 
  2  6  1  0  0  0  0 
  3  4  2  0  0  0  0 
  3  5  1  0  0  0  0 
  6  7  2  0  0  0  0 
M  END
> <CDK Fingerprint>
EABIAAAAAAAAAAAAAAAAAAAAAAAAAAQEAABgAAACAAAAAAAAAAAAAAABAAAAAAAAAAAAgAAAAoAAAAAAAAAAAAAAAAAAAAAAAAAAAAAAAAAAAAAAAAAAAABEIAAAAAAAAAAAAAAAAAAAAAAAQAAAAAAAAAADAAA=

> <ActivityOutcome_CPDBAS_Rat>
active

> <TD50_Rat_mmol>
0.000899

$$$$

  CDK     0721101958

  8  8  0  0  0  0  0  0  0  0999 V2000
    2.7766   -3.4152    0.0000 C   0  0  0  0  0  4  0  0  0  0  0  0
    1.9966   -2.3401    0.0000 N   0  0  0  0  0  3  0  0  0  0  0  0
    2.7766   -1.2650    0.0000 C   0  0  0  0  0  4  0  0  0  0  0  0
    4.0417   -1.6732    0.0000 O   0  0  0  0  0  2  0  0  0  0  0  0
    4.0417   -3.0070    0.0000 C   0  0  0  0  0  4  0  0  0  0  0  0
    2.3644    0.0000    0.0000 O   0  0  0  0  0  2  0  0  0  0  0  0
    0.6669   -2.3401    0.0000 N   0  0  0  0  0  3  0  0  0  0  0  0
    0.0000   -3.4920    0.0000 O   0  0  0  0  0  2  0  0  0  0  0  0
  1  2  1  0  0  0  0 
  1  5  1  0  0  0  0 
  2  3  1  0  0  0  0 
  2  7  1  0  0  0  0 
  3  4  1  0  0  0  0 
  3  6  2  0  0  0  0 
  4  5  1  0  0  0  0 
  7  8  2  0  0  0  0 
M  END
> <CDK Fingerprint>
CACAAAAAAgBAAgAAgAAAAAAAAAgAAIAAAACAAAAEBQIIYAAAAgABAAAAAAABSCACAQBAIAAAAAAAAMAAAAKAAAAAAQAAAAAAAAAAAACJAAAAYAAEAABAABEAAAAAAAQARCAAAAAAAABAAAAAAAAIAAAAAEAAAAAAAAAAAwAA

> <ActivityOutcome_CPDBAS_Rat>
active

> <TD50_Rat_mmol>
0.00332

$$$$

  CDK     0721101958

 10  9  0  0  0  0  0  0  0  0999 V2000
    1.9973   -3.4592    0.0000 N   0  0  0  0  0  3  0  0  0  0  0  0
    2.6584   -2.3046    0.0000 C   0  0  0  0  0  4  0  0  0  0  0  0
    1.9973   -1.1546    0.0000 C   0  0  0  0  0  4  0  0  0  0  0  0
    0.6658   -1.1546    0.0000 C   0  0  0  0  0  4  0  0  0  0  0  0
    2.6584    0.0000    0.0000 O   0  0  0  0  0  2  0  0  0  0  0  0
    2.6584   -4.6091    0.0000 C   0  0  0  0  0  4  0  0  0  0  0  0
    3.9899   -4.6091    0.0000 C   0  0  0  0  0  4  0  0  0  0  0  0
    4.6557   -3.4592    0.0000 O   0  0  0  0  0  2  0  0  0  0  0  0
    0.6658   -3.4592    0.0000 N   0  0  0  0  0  3  0  0  0  0  0  0
    0.0000   -2.3046    0.0000 O   0  0  0  0  0  2  0  0  0  0  0  0
  1  2  1  0  0  0  0 
  1  6  1  0  0  0  0 
  1  9  1  0  0  0  0 
  2  3  1  0  0  0  0 
  3  4  1  0  0  0  0 
  3  5  2  0  0  0  0 
  6  7  1  0  0  0  0 
  7  8  1  0  0  0  0 
  9 10  2  0  0  0  0 
M  END
> <CDK Fingerprint>
EAAAAAAAAgAAAoABgAAAAQAAABgAAAAAAQAAAAAEAQAAYAAAAAAAAEAAAAAACCAAEQAAAAAAAAAAAMAAAAAAAAAAAAAAAAAAAAAAAACAAAAAYCAAAAAAABAAAAAAAAAARCAAAAAIAAQAAAAAAACAAAAAABABAAAAAAAAAwAA

> <ActivityOutcome_CPDBAS_Rat>
active

> <TD50_Rat_mmol>
0.0123

$$$$

  CDK     0721101958

 10 10  0  0  0  0  0  0  0  0999 V2000
    2.3004   -0.6632    0.0000 C   0  0  0  0  0  4  0  0  0  0  0  0
    3.4540    0.0000    0.0000 C   0  0  0  0  0  4  0  0  0  0  0  0
    4.6077   -0.6632    0.0000 C   0  0  0  0  0  4  0  0  0  0  0  0
    4.6077   -1.9964    0.0000 N   0  0  0  0  0  3  0  0  0  0  0  0
    3.4540   -2.6596    0.0000 C   0  0  0  0  0  4  0  0  0  0  0  0
    2.3004   -1.9964    0.0000 N   0  0  0  0  0  3  0  0  0  0  0  0
    1.1537   -2.6596    0.0000 N   0  0  0  0  0  3  0  0  0  0  0  0
    0.0000   -1.9964    0.0000 O   0  0  0  0  0  2  0  0  0  0  0  0
    5.7544   -2.6596    0.0000 N   0  0  0  0  0  3  0  0  0  0  0  0
    6.9081   -1.9964    0.0000 O   0  0  0  0  0  2  0  0  0  0  0  0
  1  2  1  0  0  0  0 
  1  6  1  0  0  0  0 
  2  3  1  0  0  0  0 
  3  4  1  0  0  0  0 
  4  5  1  0  0  0  0 
  4  9  1  0  0  0  0 
  5  6  1  0  0  0  0 
  6  7  1  0  0  0  0 
  7  8  2  0  0  0  0 
  9 10  2  0  0  0  0 
M  END
> <CDK Fingerprint>
CAAAAAIQAEgAAYAAABAAAAAQAAAAAAAAAAAABIUAIGAAAACACAAAAAAACkAiAEEAAkAAAAAAAADAAAAAAAAAAAEAAQEAAAAAAAAAgAAAAAAgAAAAAAAAAAAAAAAABBQoAAAACAAAAAAAAAAAAABAAAAAAAAAAAAAAAMAAA==

> <ActivityOutcome_CPDBAS_Rat>
active

> <TD50_Rat_mmol>
0.00115

$$$$

  CDK     0721101958

  8  8  0  0  0  0  0  0  0  0999 V2000
    0.0000    0.0000    0.0000 O   0  0  0  0  0  2  0  0  0  0  0  0
    0.6654   -1.1540    0.0000 N   0  0  0  0  0  3  0  0  0  0  0  0
    1.9962   -1.1540    0.0000 N   0  0  0  0  0  3  0  0  0  0  0  0
    2.6569    0.0000    0.0000 C   0  0  0  0  0  4  0  0  0  0  0  0
    3.9877    0.0000    0.0000 C   0  0  0  0  0  4  0  0  0  0  0  0
    4.6531   -1.1540    0.0000 C   0  0  0  0  0  4  0  0  0  0  0  0
    2.6569   -2.3033    0.0000 C   0  0  0  0  0  4  0  0  0  0  0  0
    3.9877   -2.3033    0.0000 C   0  0  0  0  0  4  0  0  0  0  0  0
  1  2  2  0  0  0  0 
  2  3  1  0  0  0  0 
  3  4  1  0  0  0  0 
  3  7  1  0  0  0  0 
  4  5  1  0  0  0  0 
  5  6  2  0  0  0  0 
  6  8  1  0  0  0  0 
  7  8  1  0  0  0  0 
M  END
> <CDK Fingerprint>
QBAAAAAAAAIEAAAAAYBAAAAAAAAVAIAAAAIAIAAABAMAAGAAAAAAAAAABAAAAAggABEAAgAQAAAAAADAAABAAAAAAAQAAAAAAAAACAAAgAAAAAAgAAEAAAAAAAAAAACAAAQgAgEACAAAAAAABAAAAAAIAAAACAAAAAAAAAMAAA==

> <ActivityOutcome_CPDBAS_Rat>
active

> <TD50_Rat_mmol>
0.000536

$$$$

  CDK     0721101958

 10  9  0  0  0  0  0  0  0  0999 V2000
    2.3027   -3.3238    0.0000 N   0  0  0  0  0  3  0  0  0  0  0  0
    3.4567   -2.6590    0.0000 C   0  0  0  0  0  4  0  0  0  0  0  0
    3.4567   -1.3295    0.0000 C   0  0  0  0  0  4  0  0  0  0  0  0
    3.4567    0.0000    0.0000 F   0  0  0  0  0  1  0  0  0  0  0  0
    4.7862   -1.3295    0.0000 F   0  0  0  0  0  1  0  0  0  0  0  0
    2.1272   -1.3295    0.0000 F   0  0  0  0  0  1  0  0  0  0  0  0
    2.3027   -4.6533    0.0000 C   0  0  0  0  0  4  0  0  0  0  0  0
    3.4567   -5.3180    0.0000 C   0  0  0  0  0  4  0  0  0  0  0  0
    1.1487   -2.6590    0.0000 N   0  0  0  0  0  3  0  0  0  0  0  0
    0.0000   -3.3238    0.0000 O   0  0  0  0  0  2  0  0  0  0  0  0
  1  2  1  0  0  0  0 
  1  7  1  0  0  0  0 
  1  9  1  0  0  0  0 
  2  3  1  0  0  0  0 
  3  4  1  0  0  0  0 
  3  5  1  0  0  0  0 
  3  6  1  0  0  0  0 
  7  8  1  0  0  0  0 
  9 10  2  0  0  0  0 
M  END
> <CDK Fingerprint>
EAAAAAAAAgAAAAABgAAAAAAAABAAAAAAAAAAAAAEMQAAYAAAAAAgAAAAAAAAACAAAQCAAAAAAAAAAIAQAAAAAAAAAAAAAAAAAAAAAACAAAAAAAAAAAAAAAAAAAAAAAAABCAAAAAIAAAAAAAAAAAAAAAAAAAAAAAAAAAAAwAA

> <ActivityOutcome_CPDBAS_Rat>
active

> <TD50_Rat_mmol>
0.0161

$$$$

  CDK     0721101958

 11 11  0  0  0  0  0  0  0  0999 V2000
    3.3269   -3.4585    0.0000 C   0  0  0  0  0  4  0  0  0  0  0  0
    1.9925   -3.4585    0.0000 C   0  0  0  0  0  4  0  0  0  0  0  0
    1.3283   -2.3037    0.0000 N   0  0  0  0  0  3  0  0  0  0  0  0
    1.9925   -1.1548    0.0000 C   0  0  0  0  0  4  0  0  0  0  0  0
    3.3269   -1.1548    0.0000 C   0  0  0  0  0  4  0  0  0  0  0  0
    3.9910   -2.3037    0.0000 N   0  0  0  0  0  3  0  0  0  0  0  0
    5.3194   -2.3037    0.0000 N   0  0  0  0  0  3  0  0  0  0  0  0
    5.9835   -1.1548    0.0000 O   0  0  0  0  0  2  0  0  0  0  0  0
    1.3283    0.0000    0.0000 C   0  0  0  0  0  4  0  0  0  0  0  0
    0.0000   -2.3037    0.0000 C   0  0  0  0  0  4  0  0  0  0  0  0
    1.3283   -4.6073    0.0000 C   0  0  0  0  0  4  0  0  0  0  0  0
  1  2  1  0  0  0  0 
  1  6  1  0  0  0  0 
  2  3  1  0  0  0  0 
  2 11  1  0  0  0  0 
  3  4  1  0  0  0  0 
  3 10  1  0  0  0  0 
  4  5  1  0  0  0  0 
  4  9  1  0  0  0  0 
  5  6  1  0  0  0  0 
  6  7  1  0  0  0  0 
  7  8  2  0  0  0  0 
M  END
> <CDK Fingerprint>
EAAAAAAAAgAAAAABgAAAAAAAABgCAAAAAAAAAAAEAQABYAAEBAAAAAAAAAAAACAAERAAAAAAAAAAAMAAAAAAAAAAAACAAEAAAAAAAACAAAAAACAAAAAAAAAAAAAIAAAABCAAAAAMEAAgAAAAAAAAAAAAAAAAAAAAAAAgAwAA

> <ActivityOutcome_CPDBAS_Rat>
active

> <TD50_Rat_mmol>
0.00096

$$$$

  CDK     0721101958

 11 10  0  0  0  0  0  0  0  0999 V2000
    3.9901   -2.3031    0.0000 N   0  0  0  0  0  3  0  0  0  0  0  0
    3.3261   -1.1486    0.0000 C   0  0  0  0  0  4  0  0  0  0  0  0
    1.9921   -1.1486    0.0000 C   0  0  0  0  0  4  0  0  0  0  0  0
    1.3280   -2.3031    0.0000 C   0  0  0  0  0  4  0  0  0  0  0  0
    0.0000   -2.3031    0.0000 O   0  0  0  0  0  2  0  0  0  0  0  0
    1.3280    0.0000    0.0000 O   0  0  0  0  0  2  0  0  0  0  0  0
    5.3182   -2.3031    0.0000 C   0  0  0  0  0  4  0  0  0  0  0  0
    5.9822   -1.1486    0.0000 C   0  0  0  0  0  4  0  0  0  0  0  0
    5.3182    0.0000    0.0000 C   0  0  0  0  0  4  0  0  0  0  0  0
    3.3261   -3.4517    0.0000 N   0  0  0  0  0  3  0  0  0  0  0  0
    1.9921   -3.4517    0.0000 O   0  0  0  0  0  2  0  0  0  0  0  0
  1  2  1  0  0  0  0 
  1  7  1  0  0  0  0 
  1 10  1  0  0  0  0 
  2  3  1  0  0  0  0 
  3  4  1  0  0  0  0 
  3  6  1  0  0  0  0 
  4  5  1  0  0  0  0 
  7  8  1  0  0  0  0 
  8  9  2  0  0  0  0 
 10 11  2  0  0  0  0 
M  END
> <CDK Fingerprint>
QBAAAAAAAAIAAAIAAYAAABAAAAAYAAABAAIAAAAABAMAAGAAAAAAAAAAAAAAABggABEAAAAQAAAAAADAAAAAAAAAAAAAAAAAAAAAAAAAgAAAAGogQAAAAAAQAAAAAAAAAAQgAAEACAAAAAAABAAEAAAIAAAAQQAAAAAAAAMAAA==

> <ActivityOutcome_CPDBAS_Rat>
active

> <TD50_Rat_mmol>
0.00515

$$$$

  CDK     0721101958

 10  9  0  0  0  0  0  0  0  0999 V2000
    1.9973   -3.4592    0.0000 N   0  0  0  0  0  3  0  0  0  0  0  0
    2.6584   -2.3046    0.0000 C   0  0  0  0  0  4  0  0  0  0  0  0
    1.9973   -1.1546    0.0000 C   0  0  0  0  0  4  0  0  0  0  0  0
    0.6658   -1.1546    0.0000 C   0  0  0  0  0  4  0  0  0  0  0  0
    2.6584    0.0000    0.0000 O   0  0  0  0  0  2  0  0  0  0  0  0
    2.6584   -4.6091    0.0000 C   0  0  0  0  0  4  0  0  0  0  0  0
    3.9899   -4.6091    0.0000 C   0  0  0  0  0  4  0  0  0  0  0  0
    4.6557   -3.4592    0.0000 C   0  0  0  0  0  4  0  0  0  0  0  0
    0.6658   -3.4592    0.0000 N   0  0  0  0  0  3  0  0  0  0  0  0
    0.0000   -2.3046    0.0000 O   0  0  0  0  0  2  0  0  0  0  0  0
  1  2  1  0  0  0  0 
  1  6  1  0  0  0  0 
  1  9  1  0  0  0  0 
  2  3  1  0  0  0  0 
  3  4  1  0  0  0  0 
  3  5  1  0  0  0  0 
  6  7  1  0  0  0  0 
  7  8  2  0  0  0  0 
  9 10  2  0  0  0  0 
M  END
> <CDK Fingerprint>
QBAAAAAAAAIAAAIAAYAAAAAAAAAYAAAAAAIAAAAABAMAAGAAAAAAAAAAAAAAAAggABEAAAAQAAAAAADAAAAAAAAAAAAAAAAAAAAAAAAAgAAAAGAgQAAAAAAQAAAAAAAAAAQgAAEACAAAAAAABAAEAAAIAAAAAQAAAAAAAAMAAA==

> <ActivityOutcome_CPDBAS_Rat>
active

> <TD50_Rat_mmol>
0.00608

$$$$

  CDK     0721101958

 10  9  0  0  0  0  0  0  0  0999 V2000
    1.9973   -3.4592    0.0000 N   0  0  0  0  0  3  0  0  0  0  0  0
    2.6584   -2.3046    0.0000 C   0  0  0  0  0  4  0  0  0  0  0  0
    1.9973   -1.1546    0.0000 C   0  0  0  0  0  4  0  0  0  0  0  0
    0.6658   -1.1546    0.0000 C   0  0  0  0  0  4  0  0  0  0  0  0
    2.6584    0.0000    0.0000 O   0  0  0  0  0  2  0  0  0  0  0  0
    2.6584   -4.6091    0.0000 C   0  0  0  0  0  4  0  0  0  0  0  0
    3.9899   -4.6091    0.0000 C   0  0  0  0  0  4  0  0  0  0  0  0
    4.6557   -3.4592    0.0000 C   0  0  0  0  0  4  0  0  0  0  0  0
    0.6658   -3.4592    0.0000 N   0  0  0  0  0  3  0  0  0  0  0  0
    0.0000   -2.3046    0.0000 O   0  0  0  0  0  2  0  0  0  0  0  0
  1  2  1  0  0  0  0 
  1  6  1  0  0  0  0 
  1  9  1  0  0  0  0 
  2  3  1  0  0  0  0 
  3  4  1  0  0  0  0 
  3  5  2  0  0  0  0 
  6  7  1  0  0  0  0 
  7  8  2  0  0  0  0 
  9 10  2  0  0  0  0 
M  END
> <CDK Fingerprint>
QBAAAAAAAAIAAAKAAYAAAAEAAAAQAAAAAAMAAAAABAMAAGAAAAAAAAAAAAAAAAQgABEAAAAQAAAAAADAAAAAAAAAAAAAAAAAAAAAAAAAgAAAAAAgQAAAAAAAAAAAAAAAAEQgAAEACAAAAAAABAAAgAAIAAAQAAAAAAAAAAMAAA==

> <ActivityOutcome_CPDBAS_Rat>
active

> <TD50_Rat_mmol>
0.00236

$$$$

  CDK     0721101958

  9  8  0  0  0  0  0  0  0  0999 V2000
    2.3040   -1.9953    0.0000 N   0  0  0  0  0  3  0  0  0  0  0  0
    2.3040   -0.6635    0.0000 C   0  0  0  0  0  4  0  0  0  0  0  0
    1.1520    0.0000    0.0000 C   0  0  0  0  0  4  0  0  0  0  0  0
    0.0000   -0.6635    0.0000 C   0  0  0  0  0  4  0  0  0  0  0  0
    3.4560   -2.6588    0.0000 C   0  0  0  0  0  4  0  0  0  0  0  0
    4.6080   -1.9953    0.0000 C   0  0  0  0  0  4  0  0  0  0  0  0
    4.6080   -0.6635    0.0000 O   0  0  0  0  0  2  0  0  0  0  0  0
    1.1520   -2.6588    0.0000 N   0  0  0  0  0  3  0  0  0  0  0  0
    0.0000   -1.9953    0.0000 O   0  0  0  0  0  2  0  0  0  0  0  0
  1  2  1  0  0  0  0 
  1  5  1  0  0  0  0 
  1  8  1  0  0  0  0 
  2  3  1  0  0  0  0 
  3  4  2  0  0  0  0 
  5  6  1  0  0  0  0 
  6  7  1  0  0  0  0 
  8  9  2  0  0  0  0 
M  END
> <CDK Fingerprint>
QBAAAAAAAAIAAAIAAIAAAAAAAAAIAAAAAAIAAAAABAMAAGAAAAAAAAAAAAAAAAggAAEAAAAQAAAAAACAAAAAAAAAAAAAAAAAAAAAAAAAgAAAAGAAAAAAAAAQAAAAAAAAAAQgAAEAAAAAAAAABAAEAAAIAAAAAQAAAAAAAAMAAA==

> <ActivityOutcome_CPDBAS_Rat>
active

> <TD50_Rat_mmol>
0.00377

$$$$

  CDK     0721101958

 13 12  0  0  0  0  0  0  0  0999 V2000
    5.3150   -3.4534    0.0000 O   0  0  0  0  0  2  0  0  0  0  0  0
    5.9852   -2.2992    0.0000 C   0  0  0  0  0  4  0  0  0  0  0  0
    5.3150   -1.1542    0.0000 N   0  0  0  0  0  3  0  0  0  0  0  0
    3.9933   -1.1542    0.0000 C   0  0  0  0  0  4  0  0  0  0  0  0
    3.3231   -2.2992    0.0000 C   0  0  0  0  0  4  0  0  0  0  0  0
    1.9920   -2.2992    0.0000 C   0  0  0  0  0  4  0  0  0  0  0  0
    1.3311   -3.4534    0.0000 C   0  0  0  0  0  4  0  0  0  0  0  0
    0.0000   -3.4534    0.0000 C   0  0  0  0  0  4  0  0  0  0  0  0
    5.9852    0.0000    0.0000 N   0  0  0  0  0  3  0  0  0  0  0  0
    7.3163    0.0000    0.0000 O   0  0  0  0  0  2  0  0  0  0  0  0
    7.3163   -2.2992    0.0000 O   0  0  0  0  0  2  0  0  0  0  0  0
    7.9772   -3.4534    0.0000 C   0  0  0  0  0  4  0  0  0  0  0  0
    9.3083   -3.4534    0.0000 C   0  0  0  0  0  4  0  0  0  0  0  0
  1  2  2  0  0  0  0 
  2  3  1  0  0  0  0 
  2 11  1  0  0  0  0 
  3  4  1  0  0  0  0 
  3  9  1  0  0  0  0 
  4  5  1  0  0  0  0 
  5  6  1  0  0  0  0 
  6  7  1  0  0  0  0 
  7  8  1  0  0  0  0 
  9 10  2  0  0  0  0 
 11 12  1  0  0  0  0 
 12 13  1  0  0  0  0 
M  END
> <CDK Fingerprint>
AgGEAAAEAgAAAgABgAABAAAAABAAAIAAAACAAAAEBQEIYAAAAgAAAAAAAAABUKECAQACAAAABAAAANAACgKAAAAAAQAAQAAAAAAAAACJAABAACAEQABAABEAAAAAAABARCAAAQAIAABAIAAQAAAIAAACAEAAAAAAAAAAAwAA

> <ActivityOutcome_CPDBAS_Rat>
active

> <TD50_Rat_mmol>
0.00537

$$$$

  CDK     0721101958

 14 15  0  0  0  0  0  0  0  0999 V2000
    2.3043   -1.3287    0.0000 N   0  0  0  0  0  3  0  0  0  0  0  0
    3.4534   -1.9931    0.0000 N   0  0  0  0  0  3  0  0  0  0  0  0
    4.6086   -1.3287    0.0000 C   0  0  0  0  0  4  0  0  0  0  0  0
    5.7577   -1.9931    0.0000 C   0  0  0  0  0  4  0  0  0  0  0  0
    5.7577   -3.3278    0.0000 C   0  0  0  0  0  4  0  0  0  0  0  0
    4.6086   -3.9921    0.0000 C   0  0  0  0  0  4  0  0  0  0  0  0
    3.4534   -3.3278    0.0000 C   0  0  0  0  0  4  0  0  0  0  0  0
    2.3043   -3.9921    0.0000 C   0  0  0  0  0  4  0  0  0  0  0  0
    2.3043   -5.3208    0.0000 C   0  0  0  0  0  4  0  0  0  0  0  0
    1.1492   -5.9852    0.0000 C   0  0  0  0  0  4  0  0  0  0  0  0
    0.0000   -5.3208    0.0000 C   0  0  0  0  0  4  0  0  0  0  0  0
    0.0000   -3.9921    0.0000 N   0  0  0  0  0  3  0  0  0  0  0  0
    1.1492   -3.3278    0.0000 C   0  0  0  0  0  4  0  0  0  0  0  0
    2.3043    0.0000    0.0000 O   0  0  0  0  0  2  0  0  0  0  0  0
  1  2  1  0  0  0  0 
  1 14  2  0  0  0  0 
  2  3  1  0  0  0  0 
  2  7  1  0  0  0  0 
  3  4  1  0  0  0  0 
  4  5  1  0  0  0  0 
  5  6  1  0  0  0  0 
  6  7  1  0  0  0  0 
  7  8  1  0  0  0  0 
  8  9  2  0  0  0  0 
  8 13  1  0  0  0  0 
  9 10  1  0  0  0  0 
 10 11  2  0  0  0  0 
 11 12  1  0  0  0  0 
 12 13  2  0  0  0  0 
M  END
> <CDK Fingerprint>
EAAQOiCQAgACEIAcAAGAAAEgAhAgEACEQgAAIAQACDSBIQBggCARkBCAAQgAACQZIgAZBEACAABAAEAAwAAAIAECAAAAAABAIAGgAEJAAIAAgAAAICBAABmCMAAAAYAAIEDEIAIxIggAiAgASBAEIEgQHgCAAAAkAIwAAgALsCA=

> <ActivityOutcome_CPDBAS_Rat>
active

> <TD50_Rat_mmol>
0.0622

$$$$

  CDK     0721101958

 16 17  0  0  0  0  0  0  0  0999 V2000
    5.6781   -3.6371    0.0000 O   0  0  0  0  0  2  0  0  0  0  0  0
    6.3455   -2.4860    0.0000 C   0  0  0  0  0  4  0  0  0  0  0  0
    7.6804   -2.4860    0.0000 N   0  0  0  0  0  3  0  0  0  0  0  0
    8.3382   -3.6371    0.0000 C   0  0  0  0  0  4  0  0  0  0  0  0
    8.3382   -1.3349    0.0000 N   0  0  0  0  0  3  0  0  0  0  0  0
    9.6730   -1.3349    0.0000 O   0  0  0  0  0  2  0  0  0  0  0  0
    5.6781   -1.3349    0.0000 N   0  0  0  0  0  3  0  0  0  0  0  0
    4.3529   -1.3349    0.0000 C   0  0  0  0  0  4  0  0  0  0  0  0
    3.5694   -0.2612    0.0000 N   0  0  0  0  0  3  0  0  0  0  0  0
    2.3022   -0.6674    0.0000 C   0  0  0  0  0  4  0  0  0  0  0  0
    2.3022   -2.0023    0.0000 C   0  0  0  0  0  4  0  0  0  0  0  0
    3.5694   -2.4086    0.0000 S   0  0  0  0  0  2  0  0  0  0  0  0
    1.1511   -2.6601    0.0000 C   0  0  0  0  0  4  0  0  0  0  0  0
    0.0000   -2.0023    0.0000 C   0  0  0  0  0  4  0  0  0  0  0  0
    0.0000   -0.6674    0.0000 C   0  0  0  0  0  4  0  0  0  0  0  0
    1.1511    0.0000    0.0000 C   0  0  0  0  0  4  0  0  0  0  0  0
  1  2  2  0  0  0  0 
  2  3  1  0  0  0  0 
  2  7  1  0  0  0  0 
  3  4  1  0  0  0  0 
  3  5  1  0  0  0  0 
  5  6  2  0  0  0  0 
  7  8  1  0  0  0  0 
  8  9  2  0  0  0  0 
  8 12  1  0  0  0  0 
  9 10  1  0  0  0  0 
 10 11  2  0  0  0  0 
 10 16  1  0  0  0  0 
 11 12  1  0  0  0  0 
 11 13  1  0  0  0  0 
 13 14  2  0  0  0  0 
 14 15  1  0  0  0  0 
 15 16  2  0  0  0  0 
M  END
> <CDK Fingerprint>
AIACAoDwCgbAMApMhAAoQAEAACAEAQAgAAAAAEQASAQFIAFgACEiBAgAoIBSAEAAIBBNAAIgggHAhoAAgAEAApFQAkAIAIABAAAgBAAEDkAICAEQgSEAABADICAwAAEAIEJUIAAgCAiBIJQCAACCAgpBQELgTAAACAAAADADAAQ=

> <ActivityOutcome_CPDBAS_Rat>
active

> <TD50_Rat_mmol>
0.00478

$$$$

  CDK     0721101958

 11 10  0  0  0  0  0  0  0  0999 V2000
    5.3206    0.0000    0.0000 O   0  0  0  0  0  2  0  0  0  0  0  0
    3.9919    0.0000    0.0000 N   0  0  0  0  0  3  0  0  0  0  0  0
    3.3276   -1.1491    0.0000 N   0  0  0  0  0  3  0  0  0  0  0  0
    3.9919   -2.3042    0.0000 C   0  0  0  0  0  4  0  0  0  0  0  0
    5.3206   -2.3042    0.0000 C   0  0  0  0  0  4  0  0  0  0  0  0
    5.9849   -1.1491    0.0000 C   0  0  0  0  0  4  0  0  0  0  0  0
    5.9849   -3.4533    0.0000 O   0  0  0  0  0  2  0  0  0  0  0  0
    1.9930   -1.1491    0.0000 C   0  0  0  0  0  4  0  0  0  0  0  0
    1.3286   -2.3042    0.0000 C   0  0  0  0  0  4  0  0  0  0  0  0
    1.9930   -3.4533    0.0000 C   0  0  0  0  0  4  0  0  0  0  0  0
    0.0000   -2.3042    0.0000 O   0  0  0  0  0  2  0  0  0  0  0  0
  1  2  2  0  0  0  0 
  2  3  1  0  0  0  0 
  3  4  1  0  0  0  0 
  3  8  1  0  0  0  0 
  4  5  1  0  0  0  0 
  5  6  1  0  0  0  0 
  5  7  1  0  0  0  0 
  8  9  1  0  0  0  0 
  9 10  1  0  0  0  0 
  9 11  1  0  0  0  0 
M  END
> <CDK Fingerprint>
EAAAAAAAAgAAAgABgAAAAAAAABgAAAAAAAAAAAAEAQAAYAAEAAAAAAAAAAAACCAAEQAAAAAAAAAAAMAAAAAAAAAAAAAAAAAAAAAAAACAAAAAYCAAAAAAABAAAAAAAAAABCAAAAAIAARAAAAAAAAAAAAAAAABAAAAAAAAAwAA

> <ActivityOutcome_CPDBAS_Rat>
active

> <TD50_Rat_mmol>
0.00522

$$$$

  CDK     0721101958

 11 10  0  0  0  0  0  0  0  0999 V2000
    5.3206    0.0000    0.0000 O   0  0  0  0  0  2  0  0  0  0  0  0
    3.9919    0.0000    0.0000 N   0  0  0  0  0  3  0  0  0  0  0  0
    3.3276   -1.1491    0.0000 N   0  0  0  0  0  3  0  0  0  0  0  0
    3.9919   -2.3042    0.0000 C   0  0  0  0  0  4  0  0  0  0  0  0
    5.3206   -2.3042    0.0000 C   0  0  0  0  0  4  0  0  0  0  0  0
    5.9849   -1.1491    0.0000 O   0  0  0  0  0  2  0  0  0  0  0  0
    5.9849   -3.4533    0.0000 C   0  0  0  0  0  4  0  0  0  0  0  0
    1.9930   -1.1491    0.0000 C   0  0  0  0  0  4  0  0  0  0  0  0
    1.3286   -2.3042    0.0000 C   0  0  0  0  0  4  0  0  0  0  0  0
    1.9930   -3.4533    0.0000 O   0  0  0  0  0  2  0  0  0  0  0  0
    0.0000   -2.3042    0.0000 C   0  0  0  0  0  4  0  0  0  0  0  0
  1  2  2  0  0  0  0 
  2  3  1  0  0  0  0 
  3  4  1  0  0  0  0 
  3  8  1  0  0  0  0 
  4  5  1  0  0  0  0 
  5  6  2  0  0  0  0 
  5  7  1  0  0  0  0 
  8  9  1  0  0  0  0 
  9 10  2  0  0  0  0 
  9 11  1  0  0  0  0 
M  END
> <CDK Fingerprint>
EAAAAAAAAgAAAoABgAAAAQAAABAAAAAAAQAAAAAEAQAAYAAEAAAAABAAAAAAAGAAEQAAAAAAAAAAAMAAAAAAAAAAAAAAAAAAAAAAAACAAAAAACAAAAAAAAAAAAAAAAAARCAAAAAIAAAAAAAAAACAAAAAABAAAAAAAAAAAwAA

> <ActivityOutcome_CPDBAS_Rat>
active

> <TD50_Rat_mmol>
0.0031

$$$$

  CDK     0721101958

 13 12  0  0  0  0  0  0  0  0999 V2000
    3.8156    0.0000    0.0000 N   0  0  0  0  0  3  0  0  0  0  0  0
    3.1484   -1.1531    0.0000 N   0  0  0  0  0  3  0  0  0  0  0  0
    1.8203   -1.1531    0.0000 C   0  0  0  0  0  4  0  0  0  0  0  0
    1.1531   -2.2997    0.0000 C   0  0  0  0  0  4  0  0  0  0  0  0
    0.4859   -3.4528    0.0000 F   0  0  0  0  0  1  0  0  0  0  0  0
    0.0000   -1.6390    0.0000 F   0  0  0  0  0  1  0  0  0  0  0  0
    2.3062   -2.9670    0.0000 F   0  0  0  0  0  1  0  0  0  0  0  0
    3.8156   -2.2997    0.0000 C   0  0  0  0  0  4  0  0  0  0  0  0
    5.1436   -2.2997    0.0000 C   0  0  0  0  0  4  0  0  0  0  0  0
    5.1436   -0.9717    0.0000 F   0  0  0  0  0  1  0  0  0  0  0  0
    6.4781   -2.2997    0.0000 F   0  0  0  0  0  1  0  0  0  0  0  0
    5.1436   -3.6342    0.0000 F   0  0  0  0  0  1  0  0  0  0  0  0
    5.1436    0.0000    0.0000 O   0  0  0  0  0  2  0  0  0  0  0  0
  1  2  1  0  0  0  0 
  1 13  2  0  0  0  0 
  2  3  1  0  0  0  0 
  2  8  1  0  0  0  0 
  3  4  1  0  0  0  0 
  4  5  1  0  0  0  0 
  4  6  1  0  0  0  0 
  4  7  1  0  0  0  0 
  8  9  1  0  0  0  0 
  9 10  1  0  0  0  0 
  9 11  1  0  0  0  0 
  9 12  1  0  0  0  0 
M  END
> <CDK Fingerprint>
EAAAAAAAAgAAAAABgAAAAAAAABAAAAAAAAAAAAAEMQAAYAAAAAEgAAAAAAAAACAAAQCAAAAAAAAAAIAQAAAAAAAAAAAAAAAAAAAAAACAAAAAAAAAAAAAAAAAAAAAAAAABCAAAAAIAAAAAAAAAAAAAAAAAAAAAAAAAAAAAwAA

> <ActivityOutcome_CPDBAS_Rat>
inactive

$$$$

  CDK     0721101958

 19 19  0  0  0  0  0  0  0  0999 V2000
    8.8550    0.0000    0.0000 O   0  0  0  0  0  2  0  0  0  0  0  0
    8.1871   -1.1515    0.0000 N   0  0  0  0  0  3  0  0  0  0  0  0
    8.8550   -2.3030    0.0000 N   0  0  0  0  0  3  0  0  0  0  0  0
    8.1871   -3.4545    0.0000 C   0  0  0  0  0  4  0  0  0  0  0  0
    8.8550   -4.6060    0.0000 N   0  0  0  0  0  3  0  0  0  0  0  0
   10.1907   -4.6060    0.0000 C   0  0  0  0  0  4  0  0  0  0  0  0
   11.5149   -4.6060    0.0000 N   0  0  0  0  0  3  0  0  0  0  0  0
    6.8629   -3.4545    0.0000 N   0  0  0  0  0  3  0  0  0  0  0  0
    6.1950   -4.6060    0.0000 C   0  0  0  0  0  4  0  0  0  0  0  0
    4.8708   -4.6060    0.0000 C   0  0  0  0  0  4  0  0  0  0  0  0
    4.2029   -5.7575    0.0000 S   0  0  0  0  0  2  0  0  0  0  0  0
    2.8787   -5.7575    0.0000 C   0  0  0  0  0  4  0  0  0  0  0  0
    2.2109   -4.6060    0.0000 C   0  0  0  0  0  4  0  0  0  0  0  0
    0.8866   -4.4678    0.0000 C   0  0  0  0  0  4  0  0  0  0  0  0
    0.6103   -3.1666    0.0000 N   0  0  0  0  0  3  0  0  0  0  0  0
    1.7618   -2.4987    0.0000 C   0  0  0  0  0  4  0  0  0  0  0  0
    2.7521   -3.3969    0.0000 N   0  0  0  0  0  3  0  0  0  0  0  0
    0.0000   -5.4581    0.0000 C   0  0  0  0  0  4  0  0  0  0  0  0
   10.1907   -2.3030    0.0000 C   0  0  0  0  0  4  0  0  0  0  0  0
  1  2  2  0  0  0  0 
  2  3  1  0  0  0  0 
  3  4  1  0  0  0  0 
  3 19  1  0  0  0  0 
  4  5  2  0  0  0  0 
  4  8  1  0  0  0  0 
  5  6  1  0  0  0  0 
  6  7  3  0  0  0  0 
  8  9  1  0  0  0  0 
  9 10  1  0  0  0  0 
 10 11  1  0  0  0  0 
 11 12  1  0  0  0  0 
 12 13  1  0  0  0  0 
 13 14  2  0  0  0  0 
 13 17  1  0  0  0  0 
 14 15  1  0  0  0  0 
 14 18  1  0  0  0  0 
 15 16  2  0  0  0  0 
 16 17  1  0  0  0  0 
M  END
> <CDK Fingerprint>
IAACCIBCg+IQgGwAFAAIAABQAIBAgAQQAgBQCACABAQAIWArAAOkAAAAQQAkAABwBBkEAkGAAUAIAACAAAAJAQAhAASAAQEGEAAQAIEAgIAQBQSEAIAAcBQAQAAEgAgAAAQ0AABLhAACAECCQAEEACBCAgAAgCABAAKYCANCAw==

> <ActivityOutcome_CPDBAS_Rat>
inactive

$$$$

  CDK     0721101958

 11 10  0  0  0  0  0  0  0  0999 V2000
    5.7570   -0.6635    0.0000 O   0  0  0  0  0  2  0  0  0  0  0  0
    4.6098    0.0000    0.0000 N   0  0  0  0  0  3  0  0  0  0  0  0
    3.4556   -0.6635    0.0000 N   0  0  0  0  0  3  0  0  0  0  0  0
    3.4556   -1.9973    0.0000 C   0  0  0  0  0  4  0  0  0  0  0  0
    4.6098   -2.6608    0.0000 C   0  0  0  0  0  4  0  0  0  0  0  0
    5.7570   -1.9973    0.0000 C   0  0  0  0  0  4  0  0  0  0  0  0
    6.9112   -2.6608    0.0000 C   0  0  0  0  0  4  0  0  0  0  0  0
    2.3014    0.0000    0.0000 C   0  0  0  0  0  4  0  0  0  0  0  0
    1.1542   -0.6635    0.0000 C   0  0  0  0  0  4  0  0  0  0  0  0
    1.1542   -1.9973    0.0000 C   0  0  0  0  0  4  0  0  0  0  0  0
    0.0000   -2.6608    0.0000 C   0  0  0  0  0  4  0  0  0  0  0  0
  1  2  2  0  0  0  0 
  2  3  1  0  0  0  0 
  3  4  1  0  0  0  0 
  3  8  1  0  0  0  0 
  4  5  1  0  0  0  0 
  5  6  1  0  0  0  0 
  6  7  1  0  0  0  0 
  8  9  1  0  0  0  0 
  9 10  1  0  0  0  0 
 10 11  1  0  0  0  0 
M  END
> <CDK Fingerprint>
EAAAAAAAAgAAAAABgAABAAAAABAAAAAAAAAAAAAEAQAAYAAEAAAAAAAACAAAECAAEQAAAAAAAABAAMAAAAAAAAAAAAAAQAAAAAAAAACAAAAAACAAQAAAAAAAAAAAAAAABCAAAAAIAAAAAAAQAAAAAAAAAAAAAAAAAAAAAwgA

> <ActivityOutcome_CPDBAS_Rat>
active

> <TD50_Rat_mmol>
0.00437

$$$$

  CDK     0721101958

  9  8  0  0  0  0  0  0  0  0999 V2000
    0.0000   -1.9953    0.0000 O   0  0  0  0  0  2  0  0  0  0  0  0
    1.1520   -2.6588    0.0000 N   0  0  0  0  0  3  0  0  0  0  0  0
    2.3040   -1.9953    0.0000 N   0  0  0  0  0  3  0  0  0  0  0  0
    2.3040   -0.6635    0.0000 C   0  0  0  0  0  4  0  0  0  0  0  0
    1.1520    0.0000    0.0000 C   0  0  0  0  0  4  0  0  0  0  0  0
    0.0000   -0.6635    0.0000 O   0  0  0  0  0  2  0  0  0  0  0  0
    3.4560   -2.6588    0.0000 C   0  0  0  0  0  4  0  0  0  0  0  0
    4.6080   -1.9953    0.0000 C   0  0  0  0  0  4  0  0  0  0  0  0
    4.6080   -0.6635    0.0000 O   0  0  0  0  0  2  0  0  0  0  0  0
  1  2  2  0  0  0  0 
  2  3  1  0  0  0  0 
  3  4  1  0  0  0  0 
  3  7  1  0  0  0  0 
  4  5  1  0  0  0  0 
  5  6  1  0  0  0  0 
  7  8  1  0  0  0  0 
  8  9  1  0  0  0  0 
M  END
> <CDK Fingerprint>
EAAAAAAAAgAAAgAAgAAAAAAAAAgAAAAAAAAAAAAEAQAAYAAAAAAAAAAAAAAACCAAAQAAAAAAAAAAAIAAAAAAAAAAAAAAAAAAAAAAAACAAAAAYAAAAAAAABAAAAAAAAAABCAAAAAAAABAAAAAAAAAAAAAAAABAAAAAAAAAwAA

> <ActivityOutcome_CPDBAS_Rat>
active

> <TD50_Rat_mmol>
0.0236

$$$$

  CDK     0721101958

  7  6  0  0  0  0  0  0  0  0999 V2000
    3.9928    0.0000    0.0000 C   0  0  0  0  0  4  0  0  0  0  0  0
    2.6632    0.0000    0.0000 C   0  0  0  0  0  4  0  0  0  0  0  0
    1.9964   -1.1499    0.0000 N   0  0  0  0  0  3  0  0  0  0  0  0
    2.6632   -2.3038    0.0000 C   0  0  0  0  0  4  0  0  0  0  0  0
    3.9928   -2.3038    0.0000 C   0  0  0  0  0  4  0  0  0  0  0  0
    0.6668   -1.1499    0.0000 N   0  0  0  0  0  3  0  0  0  0  0  0
    0.0000    0.0000    0.0000 O   0  0  0  0  0  2  0  0  0  0  0  0
  1  2  1  0  0  0  0 
  2  3  1  0  0  0  0 
  3  4  1  0  0  0  0 
  3  6  1  0  0  0  0 
  4  5  1  0  0  0  0 
  6  7  2  0  0  0  0 
M  END
> <CDK Fingerprint>
EAAAAAAAAgAAAAAAgAAAAAAAAAAAAAAAAAAAAAAEAQAAYAAAAAAAAAAAAAAAACAAAQAAAAAAAAAAAIAAAAAAAAAAAAAAAAAAAAAAAACAAAAAAAAAAAAAAAAAAAAAAAAABCAAAAAAAAAAAAAAAAAAAAAAAAAAAAAAAAAAAwAA

> <ActivityOutcome_CPDBAS_Rat>
active

> <TD50_Rat_mmol>
0.000259

$$$$

  CDK     0721101958

  5  4  0  0  0  0  0  0  0  0999 V2000
    3.4567   -1.9945    0.0000 C   0  0  0  0  0  4  0  0  0  0  0  0
    2.3056   -1.3308    0.0000 N   0  0  0  0  0  3  0  0  0  0  0  0
    1.1511   -1.9945    0.0000 N   0  0  0  0  0  3  0  0  0  0  0  0
    0.0000   -1.3308    0.0000 O   0  0  0  0  0  2  0  0  0  0  0  0
    2.3056    0.0000    0.0000 C   0  0  0  0  0  4  0  0  0  0  0  0
  1  2  1  0  0  0  0 
  2  3  1  0  0  0  0 
  2  5  1  0  0  0  0 
  3  4  2  0  0  0  0 
M  END
> <CDK Fingerprint>
BAAAAGAAAAAAAAAAAAAAAAAAAAEAAAAAAAAAAACAAAAAAAAAAAAAAAAAAAAAAAAAAAAAAAAAAAAAAAAAAAAAAAAAAAQgAAAAAAAAAAAAAAAAAAAAAAAAAAAAAAAAAAMAAA==

> <ActivityOutcome_CPDBAS_Rat>
active

> <TD50_Rat_mmol>
0.00129

$$$$

  CDK     0721101958

 15 16  0  0  0  0  0  0  0  0999 V2000
    2.3008    0.0000    0.0000 O   0  0  0  0  0  2  0  0  0  0  0  0
    3.4546   -0.6702    0.0000 N   0  0  0  0  0  3  0  0  0  0  0  0
    3.4546   -1.9968    0.0000 N   0  0  0  0  0  3  0  0  0  0  0  0
    4.6085   -2.6601    0.0000 C   0  0  0  0  0  4  0  0  0  0  0  0
    5.7554   -1.9968    0.0000 C   0  0  0  0  0  4  0  0  0  0  0  0
    6.9093   -2.6601    0.0000 C   0  0  0  0  0  4  0  0  0  0  0  0
    6.9093   -3.9935    0.0000 C   0  0  0  0  0  4  0  0  0  0  0  0
    5.7554   -4.6568    0.0000 C   0  0  0  0  0  4  0  0  0  0  0  0
    4.6085   -3.9935    0.0000 C   0  0  0  0  0  4  0  0  0  0  0  0
    2.3008   -2.6601    0.0000 C   0  0  0  0  0  4  0  0  0  0  0  0
    2.3008   -3.9935    0.0000 C   0  0  0  0  0  4  0  0  0  0  0  0
    1.1538   -4.6568    0.0000 C   0  0  0  0  0  4  0  0  0  0  0  0
    0.0000   -3.9935    0.0000 C   0  0  0  0  0  4  0  0  0  0  0  0
    0.0000   -2.6601    0.0000 C   0  0  0  0  0  4  0  0  0  0  0  0
    1.1538   -1.9968    0.0000 C   0  0  0  0  0  4  0  0  0  0  0  0
  1  2  2  0  0  0  0 
  2  3  1  0  0  0  0 
  3  4  1  0  0  0  0 
  3 10  1  0  0  0  0 
  4  5  2  0  0  0  0 
  4  9  1  0  0  0  0 
  5  6  1  0  0  0  0 
  6  7  2  0  0  0  0 
  7  8  1  0  0  0  0 
  8  9  2  0  0  0  0 
 10 11  2  0  0  0  0 
 10 15  1  0  0  0  0 
 11 12  1  0  0  0  0 
 12 13  2  0  0  0  0 
 13 14  1  0  0  0  0 
 14 15  2  0  0  0  0 
M  END
> <CDK Fingerprint>
CAAAAAAgAAgAAAAAAEAAAIAAAABAAAAAAAAESAZAAABgAAgAAAAAAEAAAAAAAAAFAAAABgBAAAAAgAQAAEAAAAAEIAAAAAAAAAAAAAAIIAAIMAAAAAAAAAAAAAAAIQEEIAAgAAAAAAACAAAAAAAAAACAAAAAAAAAAEADEAA=

> <ActivityOutcome_CPDBAS_Rat>
active

> <TD50_Rat_mmol>
0.842

$$$$

  CDK     0721101958

 15 16  0  0  0  0  0  0  0  0999 V2000
    4.1413   -0.4181    0.0000 N   0  0  0  0  0  3  0  0  0  0  0  0
    5.6048   -1.2544    0.0000 C   0  0  0  0  0  4  0  0  0  0  0  0
    6.7297   -0.6073    0.0000 C   0  0  0  0  0  4  0  0  0  0  0  0
    7.8546   -1.2544    0.0000 C   0  0  0  0  0  4  0  0  0  0  0  0
    7.8546   -2.5585    0.0000 C   0  0  0  0  0  4  0  0  0  0  0  0
    6.7297   -3.2056    0.0000 C   0  0  0  0  0  4  0  0  0  0  0  0
    5.6048   -2.5585    0.0000 C   0  0  0  0  0  4  0  0  0  0  0  0
    8.9796   -3.2056    0.0000 N   0  0  0  0  0  3  0  0  0  0  0  0
    2.5585   -0.9955    0.0000 C   0  0  0  0  0  4  0  0  0  0  0  0
    2.1105   -2.2100    0.0000 C   0  0  0  0  0  4  0  0  0  0  0  0
    0.8362   -2.4390    0.0000 C   0  0  0  0  0  4  0  0  0  0  0  0
    0.0000   -1.4435    0.0000 C   0  0  0  0  0  4  0  0  0  0  0  0
    0.4480   -0.2190    0.0000 C   0  0  0  0  0  4  0  0  0  0  0  0
    1.7222    0.0000    0.0000 C   0  0  0  0  0  4  0  0  0  0  0  0
    9.9552   -2.8870    0.0000 O   0  0  0  0  0  2  0  0  0  0  0  0
  1  2  1  0  0  0  0 
  1  9  1  0  0  0  0 
  2  3  1  0  0  0  0 
  2  7  2  0  0  0  0 
  3  4  2  0  0  0  0 
  4  5  1  0  0  0  0 
  5  6  2  0  0  0  0 
  5  8  1  0  0  0  0 
  6  7  1  0  0  0  0 
  8 15  2  0  0  0  0 
  9 10  2  0  0  0  0 
  9 14  1  0  0  0  0 
 10 11  1  0  0  0  0 
 11 12  2  0  0  0  0 
 12 13  1  0  0  0  0 
 13 14  2  0  0  0  0 
M  END
> <CDK Fingerprint>
BAAAAAACAAAgAAAAAIAAAAAAAAAAABhAEAABAAAEQAJAAABgAAQQAAAAAAAAAAAAAAAEAAAABgBABAAAgAQAAEAAAAAEIAAAAAAAAAAAAAAIIAAAEAAAQAAAAAAAAAAAIAEEAAAgAAAAACACAAAAAAAAAACAAAAAAAAAAEACEIA=

> <ActivityOutcome_CPDBAS_Rat>
active

> <TD50_Rat_mmol>
1.01

$$$$

  CDK     0721101958

  9  8  0  0  0  0  0  0  0  0999 V2000
    0.0000   -1.9953    0.0000 O   0  0  0  0  0  2  0  0  0  0  0  0
    1.1520   -2.6588    0.0000 N   0  0  0  0  0  3  0  0  0  0  0  0
    2.3040   -1.9953    0.0000 N   0  0  0  0  0  3  0  0  0  0  0  0
    2.3040   -0.6635    0.0000 C   0  0  0  0  0  4  0  0  0  0  0  0
    1.1520    0.0000    0.0000 C   0  0  0  0  0  4  0  0  0  0  0  0
    0.0000   -0.6635    0.0000 C   0  0  0  0  0  4  0  0  0  0  0  0
    3.4560   -2.6588    0.0000 C   0  0  0  0  0  4  0  0  0  0  0  0
    4.6080   -1.9953    0.0000 C   0  0  0  0  0  4  0  0  0  0  0  0
    4.6080   -0.6635    0.0000 C   0  0  0  0  0  4  0  0  0  0  0  0
  1  2  2  0  0  0  0 
  2  3  1  0  0  0  0 
  3  4  1  0  0  0  0 
  3  7  1  0  0  0  0 
  4  5  1  0  0  0  0 
  5  6  1  0  0  0  0 
  7  8  1  0  0  0  0 
  8  9  1  0  0  0  0 
M  END
> <CDK Fingerprint>
EAAAAAAAAgAAAAABgAAAAAAAABAAAAAAAAAAAAAEAQAAYAAEAAAAAAAAAAAAACAAEQAAAAAAAAAAAMAAAAAAAAAAAAAAAAAAAAAAAACAAAAAACAAAAAAAAAAAAAAAAAABCAAAAAIAAAAAAAAAAAAAAAAAAAAAAAAAAAAAwAA

> <ActivityOutcome_CPDBAS_Rat>
active

> <TD50_Rat_mmol>
0.00143

$$$$

  CDK     0721101958

  8  8  0  0  0  0  0  0  0  0999 V2000
    1.9962   -1.1540    0.0000 N   0  0  0  0  0  3  0  0  0  0  0  0
    2.6569    0.0000    0.0000 C   0  0  0  0  0  4  0  0  0  0  0  0
    3.9877    0.0000    0.0000 S   0  0  0  0  0  2  0  0  0  0  0  0
    4.6531   -1.1540    0.0000 C   0  0  0  0  0  4  0  0  0  0  0  0
    3.9877   -2.3033    0.0000 S   0  0  0  0  0  2  0  0  0  0  0  0
    2.6569   -2.3033    0.0000 C   0  0  0  0  0  4  0  0  0  0  0  0
    0.6654   -1.1540    0.0000 N   0  0  0  0  0  3  0  0  0  0  0  0
    0.0000    0.0000    0.0000 O   0  0  0  0  0  2  0  0  0  0  0  0
  1  2  1  0  0  0  0 
  1  6  1  0  0  0  0 
  1  7  1  0  0  0  0 
  2  3  1  0  0  0  0 
  3  4  1  0  0  0  0 
  4  5  1  0  0  0  0 
  5  6  1  0  0  0  0 
  7  8  2  0  0  0  0 
M  END
> <CDK Fingerprint>
AgAAIAAAAAAAAAAAAAAAAAAEAAAAAAAAAAQABECAAWgAAAAAAAAAAAAAAAAAAAEQAAAAAAAAAASAAADAAAAAAAAAAAAAAAAAAAAAAABAAACAAACAgAAAAAACAAAAAAQgAAAAAAAAABCAAAAAAAMAACAAAAAAAAIAAAMAAA==

> <ActivityOutcome_CPDBAS_Rat>
inactive

$$$$

  CDK     0721101958

 15 15  0  0  0  0  0  0  0  0999 V2000
    0.0000   -2.3857    0.0000 O   0  0  0  0  0  2  0  0  0  0  0  0
    0.9466   -3.3169    0.0000 N   0  0  0  0  0  3  0  0  0  0  0  0
    2.2318   -2.9629    0.0000 N   0  0  0  0  0  3  0  0  0  0  0  0
    3.1630   -1.9624    0.0000 C   0  0  0  0  0  4  0  0  0  0  0  0
    3.1630   -0.6541    0.0000 C   0  0  0  0  0  4  0  0  0  0  0  0
    4.3020    0.0000    0.0000 C   0  0  0  0  0  4  0  0  0  0  0  0
    5.4333   -0.6541    0.0000 C   0  0  0  0  0  4  0  0  0  0  0  0
    6.5646    0.0000    0.0000 C   0  0  0  0  0  4  0  0  0  0  0  0
    7.6958   -0.6541    0.0000 C   0  0  0  0  0  4  0  0  0  0  0  0
    2.9706   -4.2404    0.0000 C   0  0  0  0  0  4  0  0  0  0  0  0
    4.2943   -3.9249    0.0000 C   0  0  0  0  0  4  0  0  0  0  0  0
    5.4256   -4.5790    0.0000 C   0  0  0  0  0  4  0  0  0  0  0  0
    6.5646   -3.9249    0.0000 C   0  0  0  0  0  4  0  0  0  0  0  0
    6.5646   -2.6166    0.0000 C   0  0  0  0  0  4  0  0  0  0  0  0
    7.6958   -1.9624    0.0000 C   0  0  0  0  0  4  0  0  0  0  0  0
  1  2  2  0  0  0  0 
  2  3  1  0  0  0  0 
  3  4  1  0  0  0  0 
  3 10  1  0  0  0  0 
  4  5  1  0  0  0  0 
  5  6  1  0  0  0  0 
  6  7  1  0  0  0  0 
  7  8  1  0  0  0  0 
  8  9  1  0  0  0  0 
  9 15  1  0  0  0  0 
 10 11  1  0  0  0  0 
 11 12  1  0  0  0  0 
 12 13  1  0  0  0  0 
 13 14  1  0  0  0  0 
 14 15  1  0  0  0  0 
M  END
> <CDK Fingerprint>
EAAAAAAAAgAAEAABhAABAAAAABAAAEAAAAAAAAAEAQEAYAAEAAAAAAAACAAAECAAEQAAAAAAAABAAMAAAAAAAAAAAAAAQAAAAAAAAAGAAAAEACAAQAAAAAAAAAEAAABABGAAAUAIACgIIAAQAAAAAAAAAQAAAAgABAAACwgA

> <ActivityOutcome_CPDBAS_Rat>
active

> <TD50_Rat_mmol>
0.0513

$$$$

  CDK     0721101958

 14 14  0  0  0  0  0  0  0  0999 V2000
    1.9922   -4.6067    0.0000 C   0  0  0  0  0  4  0  0  0  0  0  0
    0.6641   -4.6067    0.0000 C   0  0  0  0  0  4  0  0  0  0  0  0
    0.0000   -3.4580    0.0000 C   0  0  0  0  0  4  0  0  0  0  0  0
    0.6641   -2.3033    0.0000 C   0  0  0  0  0  4  0  0  0  0  0  0
    1.9922   -2.3033    0.0000 C   0  0  0  0  0  4  0  0  0  0  0  0
    2.6563   -3.4580    0.0000 C   0  0  0  0  0  4  0  0  0  0  0  0
    3.9904   -3.4580    0.0000 C   0  0  0  0  0  4  0  0  0  0  0  0
    4.6545   -4.6067    0.0000 O   0  0  0  0  0  2  0  0  0  0  0  0
    4.6545   -2.3033    0.0000 C   0  0  0  0  0  4  0  0  0  0  0  0
    3.9904   -1.1547    0.0000 N   0  0  0  0  0  3  0  0  0  0  0  0
    4.6545    0.0000    0.0000 C   0  0  0  0  0  4  0  0  0  0  0  0
    2.6563   -1.1547    0.0000 N   0  0  0  0  0  3  0  0  0  0  0  0
    1.9922    0.0000    0.0000 O   0  0  0  0  0  2  0  0  0  0  0  0
    5.9827   -2.3033    0.0000 C   0  0  0  0  0  4  0  0  0  0  0  0
  1  2  2  0  0  0  0 
  1  6  1  0  0  0  0 
  2  3  1  0  0  0  0 
  3  4  2  0  0  0  0 
  4  5  1  0  0  0  0 
  5  6  2  0  0  0  0 
  6  7  1  0  0  0  0 
  7  8  1  0  0  0  0 
  7  9  1  0  0  0  0 
  9 10  1  0  0  0  0 
  9 14  1  0  0  0  0 
 10 11  1  0  0  0  0 
 10 12  1  0  0  0  0 
 12 13  2  0  0  0  0 
M  END
> <CDK Fingerprint>
AIICAAASAAGAAAAIAAgAGAAAAQIAAAAABAQJAABgAAAIAAAAAAAAAgAYIAABAAAABCBAAAAAwAAAAAAEDAAAAAAABAACAAAAAIAAAABgIAAAAACAEAAAAIAAMAAEIEAkBAgAAAACQBAECACAHACAAAAEAAEAAAIDAAA=

> <ActivityOutcome_CPDBAS_Rat>
active

> <TD50_Rat_mmol>
0.49

$$$$

  CDK     0721101958

  6  5  0  0  0  0  0  0  0  0999 V2000
    2.3042    0.0000    0.0000 C   0  0  0  0  0  4  0  0  0  0  0  0
    2.3042   -1.3318    0.0000 N   0  0  0  0  0  3  0  0  0  0  0  0
    3.4563   -1.9954    0.0000 C   0  0  0  0  0  4  0  0  0  0  0  0
    4.6084   -1.3318    0.0000 C   0  0  0  0  0  4  0  0  0  0  0  0
    1.1521   -1.9954    0.0000 N   0  0  0  0  0  3  0  0  0  0  0  0
    0.0000   -1.3318    0.0000 O   0  0  0  0  0  2  0  0  0  0  0  0
  1  2  1  0  0  0  0 
  2  3  1  0  0  0  0 
  2  5  1  0  0  0  0 
  3  4  1  0  0  0  0 
  5  6  2  0  0  0  0 
M  END
> <CDK Fingerprint>
AgAAAAAAgAAAAAAAAAAAAAAAAAAAAAAEAQAAYAAAAAAAAAAAAAAAACAAAQAAAAAAAAAAAIAAAAAAAAAAAAAAAAAAAAAAAACAAAAAAAAAAAAAAAAAAAAAAAAABCAAAAAAAAAAAAAAAAAAAAAAAAAAAAAAAAAAAwAA

> <ActivityOutcome_CPDBAS_Rat>
active

> <TD50_Rat_mmol>
0.000571

$$$$

  CDK     0721101958

 10  9  0  0  0  0  0  0  0  0999 V2000
    3.9886   -3.4533    0.0000 O   0  0  0  0  0  2  0  0  0  0  0  0
    2.6591   -3.4533    0.0000 C   0  0  0  0  0  4  0  0  0  0  0  0
    1.9914   -4.6044    0.0000 N   0  0  0  0  0  3  0  0  0  0  0  0
    0.6619   -4.6044    0.0000 C   0  0  0  0  0  4  0  0  0  0  0  0
    0.0000   -5.7555    0.0000 C   0  0  0  0  0  4  0  0  0  0  0  0
    2.6591   -5.7555    0.0000 N   0  0  0  0  0  3  0  0  0  0  0  0
    3.9886   -5.7555    0.0000 O   0  0  0  0  0  2  0  0  0  0  0  0
    1.9914   -2.3022    0.0000 O   0  0  0  0  0  2  0  0  0  0  0  0
    2.6591   -1.1511    0.0000 C   0  0  0  0  0  4  0  0  0  0  0  0
    1.9914    0.0000    0.0000 C   0  0  0  0  0  4  0  0  0  0  0  0
  1  2  2  0  0  0  0 
  2  3  1  0  0  0  0 
  2  8  1  0  0  0  0 
  3  4  1  0  0  0  0 
  3  6  1  0  0  0  0 
  4  5  1  0  0  0  0 
  6  7  2  0  0  0  0 
  8  9  1  0  0  0  0 
  9 10  1  0  0  0  0 
M  END
> <CDK Fingerprint>
AYAAAAACAAACAACAAAAAAAAAAAAAgAAAAIAAAAQFAAhgAAACAAAAAAAAAAFAIQIBAAAAAAAAAAAAwAAIAoAAAAABAAAAAAAAAAAAAIkAAAAAAAQAAEAAEQAAAAAAAABEIAAAAAAAAEAAAAAAAAgAAAAAQAAAAAAAAAADAAA=

> <ActivityOutcome_CPDBAS_Rat>
active

> <TD50_Rat_mmol>
0.000619

$$$$

  CDK     0721101958

 12 12  0  0  0  0  0  0  0  0999 V2000
    1.1553   -1.9992    0.0000 O   0  0  0  0  0  2  0  0  0  0  0  0
    2.3023   -2.6628    0.0000 C   0  0  0  0  0  4  0  0  0  0  0  0
    2.3023   -3.9901    0.0000 O   0  0  0  0  0  2  0  0  0  0  0  0
    3.4576   -1.9992    0.0000 C   0  0  0  0  0  4  0  0  0  0  0  0
    3.4576   -0.6637    0.0000 C   0  0  0  0  0  4  0  0  0  0  0  0
    4.6046    0.0000    0.0000 C   0  0  0  0  0  4  0  0  0  0  0  0
    5.7599   -0.6637    0.0000 C   0  0  0  0  0  4  0  0  0  0  0  0
    5.7599   -1.9992    0.0000 N   0  0  0  0  0  3  0  0  0  0  0  0
    4.6046   -2.6628    0.0000 C   0  0  0  0  0  4  0  0  0  0  0  0
    6.9069   -2.6628    0.0000 N   0  0  0  0  0  3  0  0  0  0  0  0
    8.1933   -2.3187    0.0000 O   0  0  0  0  0  2  0  0  0  0  0  0
    0.0000   -2.6628    0.0000 C   0  0  0  0  0  4  0  0  0  0  0  0
  1  2  1  0  0  0  0 
  1 12  1  0  0  0  0 
  2  3  2  0  0  0  0 
  2  4  1  0  0  0  0 
  4  5  2  0  0  0  0 
  4  9  1  0  0  0  0 
  5  6  1  0  0  0  0 
  6  7  1  0  0  0  0 
  7  8  1  0  0  0  0 
  8  9  1  0  0  0  0 
  8 10  1  0  0  0  0 
 10 11  2  0  0  0  0 
M  END
> <CDK Fingerprint>
QBABAAAAAAIEAAIAAYBAABACAAAVAoCAAAIC4ACABAMAAGAABAgAAAAABAAAABggAhECAjAQBAAAAAPCAABAAAAEAIVYAAAAAAAACAAAoAAABAogAAFAAAAwAAAGAACAAEQgAgEACAAAAAAABAABBUAIAABwSAAAEAAAAAMAiA==

> <ActivityOutcome_CPDBAS_Rat>
inactive

$$$$

  CDK     0721101958

 10 10  0  0  0  0  0  0  0  0999 V2000
    0.0000   -1.9372    0.0000 O   0  0  0  0  0  2  0  0  0  0  0  0
    1.0397   -2.7471    0.0000 N   0  0  0  0  0  3  0  0  0  0  0  0
    2.2655   -2.2546    0.0000 N   0  0  0  0  0  3  0  0  0  0  0  0
    2.2655   -0.9358    0.0000 C   0  0  0  0  0  4  0  0  0  0  0  0
    3.2013    0.0000    0.0000 C   0  0  0  0  0  4  0  0  0  0  0  0
    4.5310    0.0000    0.0000 C   0  0  0  0  0  4  0  0  0  0  0  0
    5.4722   -0.9467    0.0000 C   0  0  0  0  0  4  0  0  0  0  0  0
    5.4722   -2.2819    0.0000 C   0  0  0  0  0  4  0  0  0  0  0  0
    4.5255   -3.2286    0.0000 C   0  0  0  0  0  4  0  0  0  0  0  0
    3.1848   -3.2286    0.0000 C   0  0  0  0  0  4  0  0  0  0  0  0
  1  2  2  0  0  0  0 
  2  3  1  0  0  0  0 
  3  4  1  0  0  0  0 
  3 10  1  0  0  0  0 
  4  5  1  0  0  0  0 
  5  6  1  0  0  0  0 
  6  7  1  0  0  0  0 
  7  8  1  0  0  0  0 
  8  9  1  0  0  0  0 
  9 10  1  0  0  0  0 
M  END
> <CDK Fingerprint>
EAAAAAAAAgAAAAABgAABAAAAABAAAEAAAAAAAAAEAQEAYAAEAAAAAAAACAAAECAAEQAAAAAAAABAAMAAAAAAAAAAAAAAQAAAAAAAAAGAAAAEACAAQAAAAAAAAAEAAABABCAAAQAIACgIIAAQAAAAAAAAAAAAAAgAAAAACwAA

> <ActivityOutcome_CPDBAS_Rat>
active

> <TD50_Rat_mmol>
0.000266

$$$$

  CDK     0721101958

  9  9  0  0  0  0  0  0  0  0999 V2000
    2.2893   -0.7820    0.0000 C   0  0  0  0  0  4  0  0  0  0  0  0
    3.5529   -0.3740    0.0000 N   0  0  0  0  0  3  0  0  0  0  0  0
    4.3348   -1.4506    0.0000 C   0  0  0  0  0  4  0  0  0  0  0  0
    3.5529   -2.5272    0.0000 C   0  0  0  0  0  4  0  0  0  0  0  0
    2.2893   -2.1136    0.0000 N   0  0  0  0  0  3  0  0  0  0  0  0
    1.2126   -2.8956    0.0000 N   0  0  0  0  0  3  0  0  0  0  0  0
    0.0000   -2.3572    0.0000 O   0  0  0  0  0  2  0  0  0  0  0  0
    5.6665   -1.4506    0.0000 O   0  0  0  0  0  2  0  0  0  0  0  0
    1.2126    0.0000    0.0000 O   0  0  0  0  0  2  0  0  0  0  0  0
  1  2  1  0  0  0  0 
  1  5  1  0  0  0  0 
  1  9  2  0  0  0  0 
  2  3  1  0  0  0  0 
  3  4  1  0  0  0  0 
  3  8  2  0  0  0  0 
  4  5  1  0  0  0  0 
  5  6  1  0  0  0  0 
  6  7  2  0  0  0  0 
M  END
> <CDK Fingerprint>
MAAIEAAAAhAQSoABgAAAABAAAAgCAAAAAQAAAAAEBQAgYAAAAoACAAAAAAABQCAAAQACQAAAAAAEAIAAAAKAAAAAAAAAAAAAAAAAAACAAAAAAAAAAAAAAAAAAAAIAAAARCAAAAAEAAAAAAAAAACAAEAEAFAAAAAAAAAgAwAA

> <ActivityOutcome_CPDBAS_Rat>
active

> <TD50_Rat_mmol>
0.339

$$$$

  CDK     0721101958

 11 11  0  0  0  0  0  0  0  0999 V2000
    4.4508   -3.2793    0.0000 C   0  0  0  0  0  4  0  0  0  0  0  0
    5.1159   -4.4303    0.0000 O   0  0  0  0  0  2  0  0  0  0  0  0
    5.1159   -2.1282    0.0000 O   0  0  0  0  0  2  0  0  0  0  0  0
    3.1207   -3.2793    0.0000 C   0  0  0  0  0  4  0  0  0  0  0  0
    2.3380   -4.3587    0.0000 C   0  0  0  0  0  4  0  0  0  0  0  0
    1.0743   -3.9443    0.0000 C   0  0  0  0  0  4  0  0  0  0  0  0
    1.0743   -2.6142    0.0000 C   0  0  0  0  0  4  0  0  0  0  0  0
    2.3380   -2.2049    0.0000 N   0  0  0  0  0  3  0  0  0  0  0  0
    2.7523   -0.9413    0.0000 N   0  0  0  0  0  3  0  0  0  0  0  0
    1.8110    0.0000    0.0000 O   0  0  0  0  0  2  0  0  0  0  0  0
    0.0000   -4.7271    0.0000 O   0  0  0  0  0  2  0  0  0  0  0  0
  1  2  2  0  0  0  0 
  1  3  1  0  0  0  0 
  4  1  1  6  0  0  0 
  4  5  1  0  0  0  0 
  4  8  1  0  0  0  0 
  5  6  1  0  0  0  0 
  6  7  1  0  0  0  0 
  6 11  1  1  0  0  0 
  7  8  1  0  0  0  0 
  8  9  1  0  0  0  0 
  9 10  2  0  0  0  0 
M  END
> <CDK Fingerprint>
EAAAAAAAAgAAAoABgAABEQAAABgAAAAAAQAAAAAEBQEAYAAAAAAAAFAAAAAAGCAAMwAAAAAAAAAAIMAgAAAAAAAAAAAAQAAAAAAAACCAAQAAaiAAAAAAABAAAAQAAABARCQAAQAIAARAAAAQAAGAAAAAAFBRAAAAAAACAwAA

> <ActivityOutcome_CPDBAS_Rat>
inactive

$$$$

  CDK     0721101958

 11 10  0  0  0  0  0  0  0  0999 V2000
    3.9919    0.0000    0.0000 N   0  0  0  0  0  3  0  0  0  0  0  0
    3.3276   -1.1491    0.0000 N   0  0  0  0  0  3  0  0  0  0  0  0
    3.9919   -2.3042    0.0000 C   0  0  0  0  0  4  0  0  0  0  0  0
    5.3206   -2.3042    0.0000 C   0  0  0  0  0  4  0  0  0  0  0  0
    5.9849   -1.1491    0.0000 O   0  0  0  0  0  2  0  0  0  0  0  0
    5.9849   -3.4533    0.0000 O   0  0  0  0  0  2  0  0  0  0  0  0
    1.9930   -1.1491    0.0000 C   0  0  0  0  0  4  0  0  0  0  0  0
    1.3286   -2.3042    0.0000 C   0  0  0  0  0  4  0  0  0  0  0  0
    1.9930   -3.4533    0.0000 O   0  0  0  0  0  2  0  0  0  0  0  0
    0.0000   -2.3042    0.0000 O   0  0  0  0  0  2  0  0  0  0  0  0
    5.3206    0.0000    0.0000 O   0  0  0  0  0  2  0  0  0  0  0  0
  1  2  1  0  0  0  0 
  1 11  2  0  0  0  0 
  2  3  1  0  0  0  0 
  2  7  1  0  0  0  0 
  3  4  1  0  0  0  0 
  4  5  1  0  0  0  0 
  4  6  2  0  0  0  0 
  7  8  1  0  0  0  0 
  8  9  1  0  0  0  0 
  8 10  2  0  0  0  0 
M  END
> <CDK Fingerprint>
EAAAAAAAAgAAAoAAgAAAAQAAAAgAAAAAAQAAAAAEAQAAYAAAAAAAAEAAAAAACGAAAQAAAAAAAAAAAIAAAAAAAAAAAAAAAAAAAAAAAACAAAAAYAAAAAAAABAAAAAAAAAARCAAAAAAAABAAAAAAACAAAAAAFABAAAAAAAAAwAA

> <ActivityOutcome_CPDBAS_Rat>
inactive

$$$$

  CDK     0721101958

 10  9  0  0  0  0  0  0  0  0999 V2000
    5.8114   -2.0343    0.0000 C   0  0  0  0  0  4  0  0  0  0  0  0
    5.8114   -0.7151    0.0000 O   0  0  0  0  0  2  0  0  0  0  0  0
    6.9432   -2.7078    0.0000 O   0  0  0  0  0  2  0  0  0  0  0  0
    4.6519   -2.7078    0.0000 C   0  0  0  0  0  4  0  0  0  0  0  0
    3.4507   -2.0621    0.0000 C   0  0  0  0  0  4  0  0  0  0  0  0
    2.2912   -2.7078    0.0000 C   0  0  0  0  0  4  0  0  0  0  0  0
    1.1595   -2.0135    0.0000 N   0  0  0  0  0  3  0  0  0  0  0  0
    1.1803   -0.6943    0.0000 N   0  0  0  0  0  3  0  0  0  0  0  0
    0.0486    0.0000    0.0000 O   0  0  0  0  0  2  0  0  0  0  0  0
    0.0000   -2.6592    0.0000 C   0  0  0  0  0  4  0  0  0  0  0  0
  1  2  2  0  0  0  0 
  1  3  1  0  0  0  0 
  1  4  1  0  0  0  0 
  4  5  1  0  0  0  0 
  5  6  1  0  0  0  0 
  6  7  1  0  0  0  0 
  7  8  1  0  0  0  0 
  7 10  1  0  0  0  0 
  8  9  2  0  0  0  0 
M  END
> <CDK Fingerprint>
AgAAAgABgAABAAAAABAAAAAAAAAAAAAEBQABYAAAAAAAAIQAAAAAECAAAwAAAQAAAAAAIMAAAAAAAAAAAAAAQAAAAAAAAACAAAAAACAAQAAAFBAAAAAAAAAARCAAAAAIAAAAAAAQAAEAAAAAAFAQAAAAAAAAAwAA

> <ActivityOutcome_CPDBAS_Rat>
active

> <TD50_Rat_mmol>
0.00672

$$$$

  CDK     0721101958

  9  8  0  0  0  0  0  0  0  0999 V2000
    2.3046   -1.9992    0.0000 N   0  0  0  0  0  3  0  0  0  0  0  0
    3.4569   -2.6618    0.0000 C   0  0  0  0  0  4  0  0  0  0  0  0
    4.6092   -1.9992    0.0000 C   0  0  0  0  0  4  0  0  0  0  0  0
    4.6092   -0.6683    0.0000 C   0  0  0  0  0  4  0  0  0  0  0  0
    3.4569    0.0000    0.0000 O   0  0  0  0  0  2  0  0  0  0  0  0
    5.7615   -2.6618    0.0000 O   0  0  0  0  0  2  0  0  0  0  0  0
    2.3046   -0.6683    0.0000 C   0  0  0  0  0  4  0  0  0  0  0  0
    1.1523   -2.6618    0.0000 N   0  0  0  0  0  3  0  0  0  0  0  0
    0.0000   -1.9992    0.0000 O   0  0  0  0  0  2  0  0  0  0  0  0
  1  2  1  0  0  0  0 
  1  7  1  0  0  0  0 
  1  8  1  0  0  0  0 
  2  3  1  0  0  0  0 
  3  4  1  0  0  0  0 
  3  6  1  0  0  0  0 
  4  5  1  0  0  0  0 
  8  9  2  0  0  0  0 
M  END
> <CDK Fingerprint>
AgAAAgABgAAAEAAAABgAAAAAAAAAAAAEAQAAYAAAAAAAAAAAAAAAGCAAAQAAAAAAAAAAAMAAAAAAAAAAAAAAAAAAAAAAAACAAAAAaiAAAAAAABAAAAAAAAAABCAAAAAIAAAAAAAAAAAAAAAAAABAAAAAAAAAAwAA

> <ActivityOutcome_CPDBAS_Rat>
active

> <TD50_Rat_mmol>
0.00482

$$$$

  CDK     0721101958

  7  6  0  0  0  0  0  0  0  0999 V2000
    2.3037    0.0000    0.0000 C   0  0  0  0  0  4  0  0  0  0  0  0
    2.3037   -1.3315    0.0000 N   0  0  0  0  0  3  0  0  0  0  0  0
    3.4555   -1.9950    0.0000 C   0  0  0  0  0  4  0  0  0  0  0  0
    4.6073   -1.3315    0.0000 C   0  0  0  0  0  4  0  0  0  0  0  0
    4.6073    0.0000    0.0000 O   0  0  0  0  0  2  0  0  0  0  0  0
    1.1518   -1.9950    0.0000 N   0  0  0  0  0  3  0  0  0  0  0  0
    0.0000   -1.3315    0.0000 O   0  0  0  0  0  2  0  0  0  0  0  0
  1  2  1  0  0  0  0 
  2  3  1  0  0  0  0 
  2  6  1  0  0  0  0 
  3  4  1  0  0  0  0 
  4  5  1  0  0  0  0 
  6  7  2  0  0  0  0 
M  END
> <CDK Fingerprint>
AgAAAgAAgAAAAAAAAAgAAAAAAAAAAAAEAQAAYAAAAAAAAAAAAAAACCAAAQAAAAAAAAAAAIAAAAAAAAAAAAAAAAAAAAAAAACAAAAAYAAAAAAAABAAAAAAAAAABCAAAAAAAAAAAAAAAAAAAAAAAAAAAAAAAAAAAwAA

> <ActivityOutcome_CPDBAS_Rat>
active

> <TD50_Rat_mmol>
0.0124

$$$$

  CDK     0721101958

  8  7  0  0  0  0  0  0  0  0999 V2000
    0.6642   -1.1549    0.0000 N   0  0  0  0  0  3  0  0  0  0  0  0
    1.9926   -1.1549    0.0000 N   0  0  0  0  0  3  0  0  0  0  0  0
    2.6569   -2.3038    0.0000 C   0  0  0  0  0  4  0  0  0  0  0  0
    3.9913   -2.3038    0.0000 C   0  0  0  0  0  4  0  0  0  0  0  0
    4.6555   -1.1549    0.0000 C   0  0  0  0  0  4  0  0  0  0  0  0
    5.9839   -1.1549    0.0000 O   0  0  0  0  0  2  0  0  0  0  0  0
    2.6569    0.0000    0.0000 C   0  0  0  0  0  4  0  0  0  0  0  0
    0.0000    0.0000    0.0000 O   0  0  0  0  0  2  0  0  0  0  0  0
  1  2  1  0  0  0  0 
  1  8  2  0  0  0  0 
  2  3  1  0  0  0  0 
  2  7  1  0  0  0  0 
  3  4  1  0  0  0  0 
  4  5  1  0  0  0  0 
  5  6  1  0  0  0  0 
M  END
> <CDK Fingerprint>
AgAAAgABgAAAEAAAABAAAAAAAAAAAAAEAQAAYAAAAAAAAAAAAAAAECAAAQAAAAAAAAAAAMAAAAAAAAAAAAAAAAAAAAAAAACAAAAACiAAAAAAABAAAAAAAAAABCAAAAAIAAAAAAAAAAAAAAAAAABAAAAAAAAAAwAA

> <ActivityOutcome_CPDBAS_Rat>
active

> <TD50_Rat_mmol>
0.0141

$$$$

  CDK     0721101958

  8  7  0  0  0  0  0  0  0  0999 V2000
    1.1526   -1.9939    0.0000 N   0  0  0  0  0  3  0  0  0  0  0  0
    2.3051   -1.3312    0.0000 N   0  0  0  0  0  3  0  0  0  0  0  0
    3.4577   -1.9939    0.0000 C   0  0  0  0  0  4  0  0  0  0  0  0
    4.6103   -1.3312    0.0000 C   0  0  0  0  0  4  0  0  0  0  0  0
    4.6103    0.0000    0.0000 C   0  0  0  0  0  4  0  0  0  0  0  0
    5.7628   -1.9939    0.0000 O   0  0  0  0  0  2  0  0  0  0  0  0
    2.3051    0.0000    0.0000 C   0  0  0  0  0  4  0  0  0  0  0  0
    0.0000   -1.3312    0.0000 O   0  0  0  0  0  2  0  0  0  0  0  0
  1  2  1  0  0  0  0 
  1  8  2  0  0  0  0 
  2  3  1  0  0  0  0 
  2  7  1  0  0  0  0 
  3  4  1  0  0  0  0 
  4  5  1  0  0  0  0 
  4  6  1  0  0  0  0 
M  END
> <CDK Fingerprint>
AgAAAgABgAAAAAAAABgAAAAAAAAAAAAEAQAAYAAAAAAAAAAAAAAACCAAAQAAAAAAAAAAAMAAAAAAAAAAAAAAAAAAAAAAAACAAAAAYCAAAAAAABAAAAAAAAAABCAAAAAIAAAAAAAAAAAAAAAAAAAAAAAAAAAAAwAA

> <ActivityOutcome_CPDBAS_Rat>
active

> <TD50_Rat_mmol>
0.000392

$$$$

  CDK     0721101958

  8  7  0  0  0  0  0  0  0  0999 V2000
    2.3051    0.0000    0.0000 C   0  0  0  0  0  4  0  0  0  0  0  0
    2.3051   -1.3312    0.0000 N   0  0  0  0  0  3  0  0  0  0  0  0
    3.4577   -1.9939    0.0000 C   0  0  0  0  0  4  0  0  0  0  0  0
    4.6103   -1.3312    0.0000 C   0  0  0  0  0  4  0  0  0  0  0  0
    5.7628   -1.9939    0.0000 C   0  0  0  0  0  4  0  0  0  0  0  0
    4.6103    0.0000    0.0000 O   0  0  0  0  0  2  0  0  0  0  0  0
    1.1526   -1.9939    0.0000 N   0  0  0  0  0  3  0  0  0  0  0  0
    0.0000   -1.3312    0.0000 O   0  0  0  0  0  2  0  0  0  0  0  0
  1  2  1  0  0  0  0 
  2  3  1  0  0  0  0 
  2  7  1  0  0  0  0 
  3  4  1  0  0  0  0 
  4  5  1  0  0  0  0 
  4  6  2  0  0  0  0 
  7  8  2  0  0  0  0 
M  END
> <CDK Fingerprint>
AgAAAoABgAAAAAAAABAAAAAAAQAAAAAEAQAAYAAAAAAAAAAAAAAAACAAAQAAAAAAAAAAAMAAAAAAAAAAAAAAAAAAAAAAAACAAAAAACAAAAAAAAAAAAAAAAAARCAAAAAIAAAAAAAAAACAAAAAABAAAAAAAAAAAwAA

> <ActivityOutcome_CPDBAS_Rat>
active

> <TD50_Rat_mmol>
0.000148

$$$$

  CDK     0721101958

 17 17  0  0  0  0  0  0  0  0999 V2000
    0.0000    0.0000    0.0000 O   0  0  0  0  0  2  0  0  0  0  0  0
    9.3162   -4.6016    0.0000 C   0  0  0  0  0  4  0  0  0  0  0  0
    7.9821   -4.6016    0.0000 C   0  0  0  0  0  4  0  0  0  0  0  0
    9.9719   -3.4483    0.0000 C   0  0  0  0  0  4  0  0  0  0  0  0
    7.3150   -3.4483    0.0000 C   0  0  0  0  0  4  0  0  0  0  0  0
    9.3162   -2.2951    0.0000 C   0  0  0  0  0  4  0  0  0  0  0  0
    7.9821   -2.2951    0.0000 C   0  0  0  0  0  4  0  0  0  0  0  0
   11.3060   -3.4483    0.0000 C   0  0  0  0  0  4  0  0  0  0  0  0
    5.9809   -3.4483    0.0000 S   0  0  0  0  0  6  0  0  0  0  0  0
    5.9809   -4.7825    0.0000 O   0  0  0  0  0  2  0  0  0  0  0  0
    5.9809   -2.1255    0.0000 O   0  0  0  0  0  2  0  0  0  0  0  0
    4.6581   -3.4483    0.0000 O   0  0  0  0  0  2  0  0  0  0  0  0
    3.9910   -2.2951    0.0000 C   0  0  0  0  0  4  0  0  0  0  0  0
    2.6569   -2.2951    0.0000 C   0  0  0  0  0  4  0  0  0  0  0  0
    1.9899   -1.1532    0.0000 N   0  0  0  0  0  3  0  0  0  0  0  0
    0.6671   -1.1532    0.0000 N   0  0  0  0  0  3  0  0  0  0  0  0
    2.6569    0.0000    0.0000 C   0  0  0  0  0  4  0  0  0  0  0  0
  1 16  2  0  0  0  0 
  2  3  1  0  0  0  0 
  2  4  2  0  0  0  0 
  3  5  2  0  0  0  0 
  4  6  1  0  0  0  0 
  4  8  1  0  0  0  0 
  5  7  1  0  0  0  0 
  5  9  1  0  0  0  0 
  6  7  2  0  0  0  0 
  9 10  2  0  0  0  0 
  9 11  2  0  0  0  0 
  9 12  1  0  0  0  0 
 12 13  1  0  0  0  0 
 13 14  1  0  0  0  0 
 14 15  1  0  0  0  0 
 15 16  1  0  0  0  0 
 15 17  1  0  0  0  0 
M  END
> <CDK Fingerprint>
AIAAghAAAAAAAkAAggIAgAAQAQAAAAgIAAAAAAAAAABEAQABZAABgAAAAAAACAAACCAAAQBBFAIAQAAAAIACgAIABKIAAAARSADAAAAgAICAAAAAYoAAAAAAgxAAAAKAACAABCDAIAAAIAAAAkkQAEACQAAAkgAiMBUgAQBAAwAA

> <ActivityOutcome_CPDBAS_Rat>
active

> <TD50_Rat_mmol>
0.0186

$$$$

  CDK     0721101958

 10 10  0  0  0  0  0  0  0  0999 V2000
    5.3206    0.0000    0.0000 C   0  0  0  0  0  4  0  0  0  0  0  0
    5.9849   -1.1551    0.0000 C   0  0  0  0  0  4  0  0  0  0  0  0
    5.3206   -2.3042    0.0000 C   0  0  0  0  0  4  0  0  0  0  0  0
    3.9919   -2.3042    0.0000 C   0  0  0  0  0  4  0  0  0  0  0  0
    3.3276   -1.1551    0.0000 C   0  0  0  0  0  4  0  0  0  0  0  0
    3.9919    0.0000    0.0000 N   0  0  0  0  0  3  0  0  0  0  0  0
    1.9930   -1.1551    0.0000 N   0  0  0  0  0  3  0  0  0  0  0  0
    1.3286   -2.3042    0.0000 N   0  0  0  0  0  3  0  0  0  0  0  0
    0.0000   -2.3042    0.0000 O   0  0  0  0  0  2  0  0  0  0  0  0
    1.3286    0.0000    0.0000 C   0  0  0  0  0  4  0  0  0  0  0  0
  1  2  2  0  0  0  0 
  1  6  1  0  0  0  0 
  2  3  1  0  0  0  0 
  3  4  2  0  0  0  0 
  4  5  1  0  0  0  0 
  5  6  2  0  0  0  0 
  5  7  1  0  0  0  0 
  7  8  1  0  0  0  0 
  7 10  1  0  0  0  0 
  8  9  2  0  0  0  0 
M  END
> <CDK Fingerprint>
CgCQChQgAAgMAACkAAAAAIAAAABAAAAQAAAECAYEAABgACwAAAAAACAAAAAIAAAFAAAAAgBAAAAAgAQAAMEAAAAAAAAEAAAgAAAAAAAAgAAIIAEAAAAQIAAAAAkAIQAEIAAgAAEAAIAAAAAAAAAAAACAAAAAAAABQAADAAA=

> <ActivityOutcome_CPDBAS_Rat>
active

> <TD50_Rat_mmol>
0.00156

$$$$

  CDK     0721101958

 10 10  0  0  0  0  0  0  0  0999 V2000
    5.9849   -1.1551    0.0000 C   0  0  0  0  0  4  0  0  0  0  0  0
    5.3206   -2.3042    0.0000 C   0  0  0  0  0  4  0  0  0  0  0  0
    3.9919   -2.3042    0.0000 C   0  0  0  0  0  4  0  0  0  0  0  0
    3.3276   -1.1551    0.0000 C   0  0  0  0  0  4  0  0  0  0  0  0
    3.9919    0.0000    0.0000 C   0  0  0  0  0  4  0  0  0  0  0  0
    5.3206    0.0000    0.0000 N   0  0  0  0  0  3  0  0  0  0  0  0
    1.9930   -1.1551    0.0000 N   0  0  0  0  0  3  0  0  0  0  0  0
    1.3286   -2.3042    0.0000 N   0  0  0  0  0  3  0  0  0  0  0  0
    0.0000   -2.3042    0.0000 O   0  0  0  0  0  2  0  0  0  0  0  0
    1.3286    0.0000    0.0000 C   0  0  0  0  0  4  0  0  0  0  0  0
  1  2  2  0  0  0  0 
  1  6  1  0  0  0  0 
  2  3  1  0  0  0  0 
  3  4  2  0  0  0  0 
  4  5  1  0  0  0  0 
  4  7  1  0  0  0  0 
  5  6  2  0  0  0  0 
  7  8  1  0  0  0  0 
  7 10  1  0  0  0  0 
  8  9  2  0  0  0  0 
M  END
> <CDK Fingerprint>
AgCQAgAgACgMAAAAAAgAAIgAAABAAAAAAAAECAQACABgAAgAAAAAAAAAAAAIAAAFgIAAAgBAAAAAgABAAEEAAAACgAAAQAAABAAAABIggAgAoAAAAAAAIAIAgAAAIQAEJAggAAAACAAEAAAAAAAAAACAAAAAAAAAAAEDgAA=

> <ActivityOutcome_CPDBAS_Rat>
inactive

$$$$

  CDK     0721101958

 10 10  0  0  0  0  0  0  0  0999 V2000
    5.3206   -2.3042    0.0000 C   0  0  0  0  0  4  0  0  0  0  0  0
    3.9919   -2.3042    0.0000 C   0  0  0  0  0  4  0  0  0  0  0  0
    3.3276   -1.1551    0.0000 C   0  0  0  0  0  4  0  0  0  0  0  0
    3.9919    0.0000    0.0000 C   0  0  0  0  0  4  0  0  0  0  0  0
    5.3206    0.0000    0.0000 C   0  0  0  0  0  4  0  0  0  0  0  0
    5.9849   -1.1551    0.0000 N   0  0  0  0  0  3  0  0  0  0  0  0
    1.9930   -1.1551    0.0000 N   0  0  0  0  0  3  0  0  0  0  0  0
    1.3286   -2.3042    0.0000 N   0  0  0  0  0  3  0  0  0  0  0  0
    0.0000   -2.3042    0.0000 O   0  0  0  0  0  2  0  0  0  0  0  0
    1.3286    0.0000    0.0000 C   0  0  0  0  0  4  0  0  0  0  0  0
  1  2  2  0  0  0  0 
  1  6  1  0  0  0  0 
  2  3  1  0  0  0  0 
  3  4  2  0  0  0  0 
  3  7  1  0  0  0  0 
  4  5  1  0  0  0  0 
  5  6  2  0  0  0  0 
  7  8  1  0  0  0  0 
  7 10  1  0  0  0  0 
  8  9  2  0  0  0  0 
M  END
> <CDK Fingerprint>
AgCQAgAgAAgMAAAAQAAAAIAAAAAAIAAAAAAECAQAAABgAAgAAAAAAAAAAAAIAAABAAAAAgBAAAAAgAAAAEEAAAAAAAAAAAAAAAAAAAAAgAAACAAAAAACIAAAIACAIQAEIgAgABAAAAAAAAAAYAAEAACAAAAAIAAAAAADAAA=

> <ActivityOutcome_CPDBAS_Rat>
inactive

$$$$

  CDK     0721101958

 10 10  0  0  0  0  0  0  0  0999 V2000
    1.3286    0.0000    0.0000 C   0  0  0  0  0  4  0  0  0  0  0  0
    1.9930   -1.1551    0.0000 N   0  0  0  0  0  3  0  0  0  0  0  0
    3.3276   -1.1551    0.0000 C   0  0  0  0  0  4  0  0  0  0  0  0
    3.9919    0.0000    0.0000 C   0  0  0  0  0  4  0  0  0  0  0  0
    5.3206    0.0000    0.0000 C   0  0  0  0  0  4  0  0  0  0  0  0
    5.9849   -1.1551    0.0000 C   0  0  0  0  0  4  0  0  0  0  0  0
    5.3206   -2.3042    0.0000 C   0  0  0  0  0  4  0  0  0  0  0  0
    3.9919   -2.3042    0.0000 C   0  0  0  0  0  4  0  0  0  0  0  0
    1.3286   -2.3042    0.0000 N   0  0  0  0  0  3  0  0  0  0  0  0
    0.0000   -2.3042    0.0000 O   0  0  0  0  0  2  0  0  0  0  0  0
  1  2  1  0  0  0  0 
  2  3  1  0  0  0  0 
  2  9  1  0  0  0  0 
  3  4  2  0  0  0  0 
  3  8  1  0  0  0  0 
  4  5  1  0  0  0  0 
  5  6  2  0  0  0  0 
  6  7  1  0  0  0  0 
  7  8  2  0  0  0  0 
  9 10  2  0  0  0  0 
M  END
> <CDK Fingerprint>
CAAAAAAgAAgAAAAAAEAAAIAAAABAAAAAAAAESAYAAABgAAgAAAAAAEAAAAAAAAAFAAAAAgBAAAAAgAQAAEAAAAAAAAAAAAAAAAAAAAAAAAAIIAAAAAAAAAAAAAAAIQAEIAAgAAAAAAACAAAAAAAAAACAAAAAAAAAAAADEAA=

> <ActivityOutcome_CPDBAS_Rat>
active

> <TD50_Rat_mmol>
0.00104

$$$$

  CDK     0721101958

 15 14  0  0  0  0  0  0  0  0999 V2000
    2.3106    0.0000    0.0000 C   0  0  0  0  0  4  0  0  0  0  0  0
    2.3106   -1.3353    0.0000 N   0  0  0  0  0  3  0  0  0  0  0  0
    3.4658   -1.9955    0.0000 C   0  0  0  0  0  4  0  0  0  0  0  0
    4.6211   -1.3353    0.0000 C   0  0  0  0  0  4  0  0  0  0  0  0
    5.7764   -1.9955    0.0000 C   0  0  0  0  0  4  0  0  0  0  0  0
    6.9317   -1.3353    0.0000 C   0  0  0  0  0  4  0  0  0  0  0  0
    8.0719   -1.9955    0.0000 C   0  0  0  0  0  4  0  0  0  0  0  0
    9.2272   -1.3353    0.0000 C   0  0  0  0  0  4  0  0  0  0  0  0
   10.3825   -1.9955    0.0000 C   0  0  0  0  0  4  0  0  0  0  0  0
   11.5378   -1.3353    0.0000 C   0  0  0  0  0  4  0  0  0  0  0  0
   12.6930   -1.9955    0.0000 C   0  0  0  0  0  4  0  0  0  0  0  0
   13.8483   -1.3353    0.0000 C   0  0  0  0  0  4  0  0  0  0  0  0
   15.0036   -1.9955    0.0000 C   0  0  0  0  0  4  0  0  0  0  0  0
    1.1553   -1.9955    0.0000 N   0  0  0  0  0  3  0  0  0  0  0  0
    0.0000   -1.3353    0.0000 O   0  0  0  0  0  2  0  0  0  0  0  0
  1  2  1  0  0  0  0 
  2  3  1  0  0  0  0 
  2 14  1  0  0  0  0 
  3  4  1  0  0  0  0 
  4  5  1  0  0  0  0 
  5  6  1  0  0  0  0 
  6  7  1  0  0  0  0 
  7  8  1  0  0  0  0 
  8  9  1  0  0  0  0 
  9 10  1  0  0  0  0 
 10 11  1  0  0  0  0 
 11 12  1  0  0  0  0 
 12 13  1  0  0  0  0 
 14 15  2  0  0  0  0 
M  END
> <CDK Fingerprint>
AgAAAAABhAABAAAAABAAAEAAAAAAAAAEAQEAYAAAAAAAAAAAAAAAECAAAQAAAAAAAAAAAMAAAAAAAAAAAAAAQAAAAAAAAAGAAAAEACAAQAAAAAAAAAEAAABABCAAAUAIACAIIAAQAAAAAAAAAQAAAAgABAAACwAA

> <ActivityOutcome_CPDBAS_Rat>
active

> <TD50_Rat_mmol>
0.0111

$$$$

  CDK     0721101958

  8  8  0  0  0  0  0  0  0  0999 V2000
    0.0000    0.0000    0.0000 O   0  0  0  0  0  2  0  0  0  0  0  0
    0.6654   -1.1540    0.0000 N   0  0  0  0  0  3  0  0  0  0  0  0
    1.9962   -1.1540    0.0000 N   0  0  0  0  0  3  0  0  0  0  0  0
    2.6569    0.0000    0.0000 C   0  0  0  0  0  4  0  0  0  0  0  0
    3.9877    0.0000    0.0000 C   0  0  0  0  0  4  0  0  0  0  0  0
    4.6531   -1.1540    0.0000 O   0  0  0  0  0  2  0  0  0  0  0  0
    3.9877   -2.3033    0.0000 C   0  0  0  0  0  4  0  0  0  0  0  0
    2.6569   -2.3033    0.0000 C   0  0  0  0  0  4  0  0  0  0  0  0
  1  2  2  0  0  0  0 
  2  3  1  0  0  0  0 
  3  4  1  0  0  0  0 
  3  8  1  0  0  0  0 
  4  5  1  0  0  0  0 
  5  6  1  0  0  0  0 
  6  7  1  0  0  0  0 
  7  8  1  0  0  0  0 
M  END
> <CDK Fingerprint>
EAABAAAAAgBAAgAAgAABAAAAAAgAAIAAAAAAAAAEAQIAYAiAAAAAAAAAAAAACCACAQAAAAAAAAAAAIAAAAAAAAAAAAAAAAAAAAAAAACAAAAAYAAAAAAAABAAAAAAAAQABCAAAAAAAAAAAAAAAAAAAAAAAAABAAAAAAAAAwAA

> <ActivityOutcome_CPDBAS_Rat>
active

> <TD50_Rat_mmol>
0.000939

$$$$

  CDK     0721101958

 13 14  0  0  0  0  0  0  0  0999 V2000
    2.2670    0.0000    0.0000 N   0  0  0  0  0  3  0  0  0  0  0  0
    3.5961    0.0000    0.0000 C   0  0  0  0  0  4  0  0  0  0  0  0
    4.2606   -1.1490    0.0000 C   0  0  0  0  0  4  0  0  0  0  0  0
    3.5961   -2.3042    0.0000 C   0  0  0  0  0  4  0  0  0  0  0  0
    2.2670   -2.3042    0.0000 C   0  0  0  0  0  4  0  0  0  0  0  0
    1.5962   -1.1490    0.0000 C   0  0  0  0  0  4  0  0  0  0  0  0
    1.5962   -3.4532    0.0000 C   0  0  0  0  0  4  0  0  0  0  0  0
    2.1427   -4.6705    0.0000 N   0  0  0  0  0  3  0  0  0  0  0  0
    3.4408   -4.9438    0.0000 N   0  0  0  0  0  3  0  0  0  0  0  0
    3.8507   -6.2108    0.0000 O   0  0  0  0  0  2  0  0  0  0  0  0
    1.1490   -5.5587    0.0000 C   0  0  0  0  0  4  0  0  0  0  0  0
    0.0000   -4.8941    0.0000 C   0  0  0  0  0  4  0  0  0  0  0  0
    0.2795   -3.5961    0.0000 C   0  0  0  0  0  4  0  0  0  0  0  0
  1  2  1  0  0  0  0 
  1  6  2  0  0  0  0 
  2  3  2  0  0  0  0 
  3  4  1  0  0  0  0 
  4  5  2  0  0  0  0 
  5  6  1  0  0  0  0 
  5  7  1  0  0  0  0 
  7  8  1  0  0  0  0 
  7 13  1  0  0  0  0 
  8  9  1  0  0  0  0 
  8 11  1  0  0  0  0 
  9 10  2  0  0  0  0 
 11 12  1  0  0  0  0 
 12 13  1  0  0  0  0 
M  END
> <CDK Fingerprint>
EAAQGiCQAgACEIAcAAGAAAEgABAAEACEAgAAIAQACHSBIQBggAARkACAAQgAACQZIgAZBEBCAABAAAAAwAAAIAEIAAAAAABAIAGgAEJAAIAAgAAAIAAAABGgMAAAAIAAIEDEIgAxIggAiAAASBAEIEgQHiCAAAAEAIgAAgADsKA=

> <ActivityOutcome_CPDBAS_Rat>
active

> <TD50_Rat_mmol>
0.00054

$$$$

  CDK     0721101958

 14 15  0  0  0  0  0  0  0  0999 V2000
    5.5085   -1.1540    0.0000 C   0  0  0  0  0  4  0  0  0  0  0  0
    6.1727   -2.3014    0.0000 C   0  0  0  0  0  4  0  0  0  0  0  0
    5.5085   -3.4554    0.0000 C   0  0  0  0  0  4  0  0  0  0  0  0
    4.1800   -3.4554    0.0000 C   0  0  0  0  0  4  0  0  0  0  0  0
    3.5091   -2.3014    0.0000 C   0  0  0  0  0  4  0  0  0  0  0  0
    4.1800   -1.1540    0.0000 N   0  0  0  0  0  4  0  0  0  0  0  0
    3.5091    0.0000    0.0000 O   0  0  0  0  0  1  0  0  0  0  0  0
    3.5091   -4.6027    0.0000 C   0  0  0  0  0  4  0  0  0  0  0  0
    4.0525   -5.8171    0.0000 C   0  0  0  0  0  4  0  0  0  0  0  0
    3.0662   -6.7095    0.0000 C   0  0  0  0  0  4  0  0  0  0  0  0
    1.9122   -6.0453    0.0000 C   0  0  0  0  0  4  0  0  0  0  0  0
    2.1873   -4.7436    0.0000 N   0  0  0  0  0  3  0  0  0  0  0  0
    1.3016   -3.7573    0.0000 N   0  0  0  0  0  3  0  0  0  0  0  0
    0.0000   -4.0324    0.0000 O   0  0  0  0  0  2  0  0  0  0  0  0
  1  2  2  0  0  0  0 
  1  6  1  0  0  0  0 
  2  3  1  0  0  0  0 
  3  4  2  0  0  0  0 
  4  5  1  0  0  0  0 
  4  8  1  0  0  0  0 
  5  6  2  0  0  0  0 
  6  7  1  0  0  0  0 
  8  9  1  0  0  0  0 
  8 12  1  0  0  0  0 
  9 10  1  0  0  0  0 
 10 11  1  0  0  0  0 
 11 12  1  0  0  0  0 
 12 13  1  0  0  0  0 
 13 14  2  0  0  0  0 
M  CHG  1   6   1
M  CHG  1   7  -1
M  END
> <CDK Fingerprint>
EAAQGiCQAgACEIAcAAGAAAEgABAAFgCEAggAIAQACHSBIQLggAARkACAAQgAAiSZIgAZBEBCAQBABAAAwAAAIAEIAABAAEBAIAGwAEJAAIAA0AAUIAAAABGgMAAAAIAAIEDEIgAxIggAiAAASBAEIEgQHiCAAAAEAIgAAgADsKA=

> <ActivityOutcome_CPDBAS_Rat>
active

> <TD50_Rat_mmol>
0.00453

$$$$

  CDK     0721101958

 11 11  0  0  0  0  0  0  0  0999 V2000
    2.6581    0.0000    0.0000 O   0  0  0  0  0  2  0  0  0  0  0  0
    1.9971   -1.1545    0.0000 N   0  0  0  0  0  3  0  0  0  0  0  0
    2.6581   -2.3043    0.0000 N   0  0  0  0  0  3  0  0  0  0  0  0
    3.9895   -2.3043    0.0000 C   0  0  0  0  0  4  0  0  0  0  0  0
    4.6552   -3.4588    0.0000 C   0  0  0  0  0  4  0  0  0  0  0  0
    3.9895   -4.6086    0.0000 C   0  0  0  0  0  4  0  0  0  0  0  0
    1.9971   -3.4588    0.0000 C   0  0  0  0  0  4  0  0  0  0  0  0
    2.6581   -4.6086    0.0000 C   0  0  0  0  0  4  0  0  0  0  0  0
    0.6657   -3.4588    0.0000 C   0  0  0  0  0  4  0  0  0  0  0  0
    0.0000   -4.6086    0.0000 O   0  0  0  0  0  2  0  0  0  0  0  0
    0.0000   -2.3043    0.0000 O   0  0  0  0  0  2  0  0  0  0  0  0
  1  2  2  0  0  0  0 
  2  3  1  0  0  0  0 
  3  4  1  0  0  0  0 
  3  7  1  0  0  0  0 
  4  5  1  0  0  0  0 
  5  6  1  0  0  0  0 
  6  8  1  0  0  0  0 
  7  8  1  0  0  0  0 
  7  9  1  0  0  0  0 
  9 10  2  0  0  0  0 
  9 11  1  0  0  0  0 
M  END
> <CDK Fingerprint>
EAAAAAAAAgCAAoRBgAABAQAAABgAAUAAAQAAAAAEAQEAYAAAAAAAABAAAAAAGCAAMQAAAAAAAABAIMBAAAAAAAAAAAAAQAAAAAAAAACAAAAAYCAAQAAAABAAAAEAAABARCAAAQAIAAQIAAAQAAGAAACAAFARAAAIAAAECwAA

> <ActivityOutcome_CPDBAS_Rat>
inactive

$$$$

  CDK     0721101958

  8  8  0  0  0  0  0  0  0  0999 V2000
    0.0000    0.0000    0.0000 O   0  0  0  0  0  2  0  0  0  0  0  0
    0.6654   -1.1540    0.0000 N   0  0  0  0  0  3  0  0  0  0  0  0
    1.9962   -1.1540    0.0000 N   0  0  0  0  0  3  0  0  0  0  0  0
    2.6569    0.0000    0.0000 C   0  0  0  0  0  4  0  0  0  0  0  0
    3.9877    0.0000    0.0000 C   0  0  0  0  0  4  0  0  0  0  0  0
    4.6531   -1.1540    0.0000 N   0  0  0  0  0  3  0  0  0  0  0  0
    2.6569   -2.3033    0.0000 C   0  0  0  0  0  4  0  0  0  0  0  0
    3.9877   -2.3033    0.0000 C   0  0  0  0  0  4  0  0  0  0  0  0
  1  2  2  0  0  0  0 
  2  3  1  0  0  0  0 
  3  4  1  0  0  0  0 
  3  7  1  0  0  0  0 
  4  5  1  0  0  0  0 
  5  6  1  0  0  0  0 
  6  8  1  0  0  0  0 
  7  8  1  0  0  0  0 
M  END
> <CDK Fingerprint>
EAAAAAAAAgAAAAABgAAAAAAAAAgCAAAAAAAAAAAEAQABYAAABAAAAAAAAAAAACAAARAAAAAAAAAAAIAAAAAAAAAAAACAAAAAAAAAAACAAAAAAAAAAAAAAAAAAAAIAAAABCAAAAAEAAAAAAAAAAAAAAAAAAAAAAAAAAAgAwAA

> <ActivityOutcome_CPDBAS_Rat>
active

> <TD50_Rat_mmol>
0.0763

$$$$

  CDK     0721101958

  8  8  0  0  0  0  0  0  0  0999 V2000
    0.0000    0.0000    0.0000 O   0  0  0  0  0  2  0  0  0  0  0  0
    0.6654   -1.1540    0.0000 N   0  0  0  0  0  3  0  0  0  0  0  0
    1.9962   -1.1540    0.0000 N   0  0  0  0  0  3  0  0  0  0  0  0
    2.6569    0.0000    0.0000 C   0  0  0  0  0  4  0  0  0  0  0  0
    3.9877    0.0000    0.0000 C   0  0  0  0  0  4  0  0  0  0  0  0
    4.6531   -1.1540    0.0000 C   0  0  0  0  0  4  0  0  0  0  0  0
    3.9877   -2.3033    0.0000 C   0  0  0  0  0  4  0  0  0  0  0  0
    2.6569   -2.3033    0.0000 C   0  0  0  0  0  4  0  0  0  0  0  0
  1  2  2  0  0  0  0 
  2  3  1  0  0  0  0 
  3  4  1  0  0  0  0 
  3  8  1  0  0  0  0 
  4  5  1  0  0  0  0 
  5  6  1  0  0  0  0 
  6  7  1  0  0  0  0 
  7  8  1  0  0  0  0 
M  END
> <CDK Fingerprint>
EAAAAAAAAgAAAAABgAABAAAAABAAAAAAAAAAAAAEAQEAYAAAAAAAAAAAAAAAECAAEQAAAAAAAAAAAMAAAAAAAAAAAAAAQAAAAAAAAACAAAAAACAAQAAAAAAAAAAAAABABCAAAQAIAAAAAAAQAAAAAAAAAAAAAAAAAAAAAwAA

> <ActivityOutcome_CPDBAS_Rat>
active

> <TD50_Rat_mmol>
0.0125

$$$$

  CDK     0721101958

 10 10  0  0  0  0  0  0  0  0999 V2000
    3.3060    0.0000    0.0000 O   0  0  0  0  0  2  0  0  0  0  0  0
    2.3665   -0.9395    0.0000 N   0  0  0  0  0  3  0  0  0  0  0  0
    2.7742   -2.2025    0.0000 N   0  0  0  0  0  3  0  0  0  0  0  0
    4.0416   -2.6146    0.0000 C   0  0  0  0  0  4  0  0  0  0  0  0
    4.0416   -3.9441    0.0000 C   0  0  0  0  0  4  0  0  0  0  0  0
    1.9942   -3.2794    0.0000 C   0  0  0  0  0  4  0  0  0  0  0  0
    2.7742   -4.3562    0.0000 C   0  0  0  0  0  4  0  0  0  0  0  0
    0.6647   -3.2794    0.0000 C   0  0  0  0  0  4  0  0  0  0  0  0
    0.0000   -4.4316    0.0000 O   0  0  0  0  0  2  0  0  0  0  0  0
    0.0000   -2.1272    0.0000 O   0  0  0  0  0  2  0  0  0  0  0  0
  1  2  2  0  0  0  0 
  2  3  1  0  0  0  0 
  3  4  1  0  0  0  0 
  3  6  1  0  0  0  0 
  4  5  1  0  0  0  0 
  5  7  1  0  0  0  0 
  6  7  1  0  0  0  0 
  6  8  1  1  0  0  0 
  8  9  2  0  0  0  0 
  8 10  1  0  0  0  0 
M  END
> <CDK Fingerprint>
EAAAAAAAAgAAAoABgAABAQAAABgAAAAAAQAAAAAEAQEAYAAAAAAAABAAAAAAGCAAMQAAAAAAAAAAIMAgAAAAAAAAAAAAQAAAAAAAACCAAQAAYCAAAAAAABAAAAQAAABARCQAAQAIAAQAAAAQAAGAAAAAAFARAAAAAAACAwAA

> <ActivityOutcome_CPDBAS_Rat>
inactive

$$$$

  CDK     0721101958

  7  7  0  0  0  0  0  0  0  0999 V2000
    0.0000   -1.5998    0.0000 O   0  0  0  0  0  2  0  0  0  0  0  0
    1.1503   -2.2653    0.0000 N   0  0  0  0  0  3  0  0  0  0  0  0
    2.3050   -1.5998    0.0000 N   0  0  0  0  0  3  0  0  0  0  0  0
    2.4416   -0.2777    0.0000 C   0  0  0  0  0  4  0  0  0  0  0  0
    3.7417    0.0000    0.0000 C   0  0  0  0  0  4  0  0  0  0  0  0
    4.4072   -1.1547    0.0000 C   0  0  0  0  0  4  0  0  0  0  0  0
    3.5169   -2.1419    0.0000 C   0  0  0  0  0  4  0  0  0  0  0  0
  1  2  2  0  0  0  0 
  2  3  1  0  0  0  0 
  3  4  1  0  0  0  0 
  3  7  1  0  0  0  0 
  4  5  1  0  0  0  0 
  5  6  1  0  0  0  0 
  6  7  1  0  0  0  0 
M  END
> <CDK Fingerprint>
EAAAAAAAAgAAAAABgAABAAAAABAAAAAAAAAAAAAEAQAAYAAAAAAAAAAAAAAAECAAAQAAAAAAAAAAAMAAAAAAAAAAAAAAQAAAAAAAAACAAAAAACAAAAAAAAAAAAAAAAAABCAAAAAIAAAAAAAQAAAAAAAAAAAAAAAAAAAAAwAA

> <ActivityOutcome_CPDBAS_Rat>
active

> <TD50_Rat_mmol>
0.00798

$$$$

  CDK     0721101958

 11 11  0  0  0  0  0  0  0  0999 V2000
    1.9918    0.0000    0.0000 C   0  0  0  0  0  4  0  0  0  0  0  0
    2.6558   -1.1544    0.0000 C   0  0  0  0  0  4  0  0  0  0  0  0
    3.9896   -1.1544    0.0000 S   0  0  0  0  0  2  0  0  0  0  0  0
    4.6536   -2.3029    0.0000 C   0  0  0  0  0  4  0  0  0  0  0  0
    3.9896   -3.4573    0.0000 S   0  0  0  0  0  2  0  0  0  0  0  0
    2.6558   -3.4573    0.0000 C   0  0  0  0  0  4  0  0  0  0  0  0
    1.9918   -2.3029    0.0000 N   0  0  0  0  0  3  0  0  0  0  0  0
    0.6639   -2.3029    0.0000 N   0  0  0  0  0  3  0  0  0  0  0  0
    0.0000   -3.4573    0.0000 O   0  0  0  0  0  2  0  0  0  0  0  0
    1.9918   -4.6057    0.0000 C   0  0  0  0  0  4  0  0  0  0  0  0
    5.9814   -2.3029    0.0000 C   0  0  0  0  0  4  0  0  0  0  0  0
  1  2  1  0  0  0  0 
  2  3  1  0  0  0  0 
  2  7  1  0  0  0  0 
  3  4  1  0  0  0  0 
  4  5  1  0  0  0  0 
  4 11  1  0  0  0  0 
  5  6  1  0  0  0  0 
  6  7  1  0  0  0  0 
  6 10  1  0  0  0  0 
  7  8  1  0  0  0  0 
  8  9  2  0  0  0  0 
M  END
> <CDK Fingerprint>
EgACAAAiAgAAAACAgAAAAAAAAAQAAAAAAQAABAAEQYABbAAACAQACAAAACAAgCAAgxAAAAAAIAAABIAAAMAAAAAAAAAAAAAAAAAAAACAAEAAAIAFAICAAAAAAAIAAAAABCAAAAAAAgAAEIAAAAAAIwAAIAAAAAAAIgAAAwAA

> <ActivityOutcome_CPDBAS_Rat>
active

> <TD50_Rat_mmol>
0.00251

$$$$

  CDK     0721101958

  8  8  0  0  0  0  0  0  0  0999 V2000
    0.0000    0.0000    0.0000 O   0  0  0  0  0  2  0  0  0  0  0  0
    0.6654   -1.1540    0.0000 N   0  0  0  0  0  3  0  0  0  0  0  0
    1.9962   -1.1540    0.0000 N   0  0  0  0  0  3  0  0  0  0  0  0
    2.6569    0.0000    0.0000 C   0  0  0  0  0  4  0  0  0  0  0  0
    3.9877    0.0000    0.0000 C   0  0  0  0  0  4  0  0  0  0  0  0
    4.6531   -1.1540    0.0000 S   0  0  0  0  0  2  0  0  0  0  0  0
    3.9877   -2.3033    0.0000 C   0  0  0  0  0  4  0  0  0  0  0  0
    2.6569   -2.3033    0.0000 C   0  0  0  0  0  4  0  0  0  0  0  0
  1  2  2  0  0  0  0 
  2  3  1  0  0  0  0 
  3  4  1  0  0  0  0 
  3  8  1  0  0  0  0 
  4  5  1  0  0  0  0 
  5  6  1  0  0  0  0 
  6  7  1  0  0  0  0 
  7  8  1  0  0  0  0 
M  END
> <CDK Fingerprint>
EAAAAAACAgAAAAAAgAAAAAAAAAAAAAAAAAAAAAAEAQABYAAAAAQAACAAAAAAACAEAQgAAQAAAAIAAIAAAAAAAAAAAAAAAAAAABAAAACAAAAQAIAAAAAAQAAAAAAAAAgABCAAAAAAAAAAAIAAAAAIIAAAAAAAAAAAAgAAAwAB

> <ActivityOutcome_CPDBAS_Rat>
active

> <TD50_Rat_mmol>
0.0408

$$$$

  CDK     0721101958

  9  9  0  0  0  0  0  0  0  0999 V2000
    2.6588    0.0000    0.0000 C   0  0  0  0  0  4  0  0  0  0  0  0
    1.9976   -1.1501    0.0000 C   0  0  0  0  0  4  0  0  0  0  0  0
    2.6588   -2.3049    0.0000 C   0  0  0  0  0  4  0  0  0  0  0  0
    1.9976   -3.4550    0.0000 C   0  0  0  0  0  4  0  0  0  0  0  0
    0.6659   -3.4550    0.0000 C   0  0  0  0  0  4  0  0  0  0  0  0
    0.0000   -2.3049    0.0000 C   0  0  0  0  0  4  0  0  0  0  0  0
    0.6659   -1.1501    0.0000 C   0  0  0  0  0  4  0  0  0  0  0  0
    3.9905   -2.3049    0.0000 N   0  0  0  0  0  3  0  0  0  0  0  0
    4.6563   -3.4550    0.0000 O   0  0  0  0  0  2  0  0  0  0  0  0
  1  2  1  0  0  0  0 
  2  3  2  0  0  0  0 
  2  7  1  0  0  0  0 
  3  4  1  0  0  0  0 
  3  8  1  0  0  0  0 
  4  5  2  0  0  0  0 
  5  6  1  0  0  0  0 
  6  7  2  0  0  0  0 
  8  9  2  0  0  0  0 
M  END
> <CDK Fingerprint>
AgAAIgAAAAAAAAAAAAAAAAAYQAAAAAAABAACAAAAYAAEAAAAAAAAAAAAAGAAAAAAAAAAQAQAAAAAAAAABAABAAAAAAAAAAAAAAAAAAAAAAAAAAAAgAAAAACAACAABABAIAAAAAAgAkAAAAAAAAAAgAAAAAAAAAAAAhAA

> <ActivityOutcome_CPDBAS_Rat>
active

> <TD50_Rat_mmol>
0.419

$$$$

  CDK     0721101958

 10 10  0  0  0  0  0  0  0  0999 V2000
    3.9896   -2.3044    0.0000 N   0  0  0  0  0  4  0  0  0  0  0  0
    4.6553   -3.4542    0.0000 O   0  0  0  0  0  2  0  0  0  0  0  0
    4.6553   -1.1499    0.0000 O   0  0  0  0  0  1  0  0  0  0  0  0
    2.6582   -2.3044    0.0000 C   0  0  0  0  0  4  0  0  0  0  0  0
    1.9971   -3.4542    0.0000 C   0  0  0  0  0  4  0  0  0  0  0  0
    0.6657   -3.4542    0.0000 C   0  0  0  0  0  4  0  0  0  0  0  0
    0.0000   -2.3044    0.0000 C   0  0  0  0  0  4  0  0  0  0  0  0
    0.6657   -1.1499    0.0000 C   0  0  0  0  0  4  0  0  0  0  0  0
    1.9971   -1.1499    0.0000 C   0  0  0  0  0  4  0  0  0  0  0  0
    2.6582    0.0000    0.0000 C   0  0  0  0  0  4  0  0  0  0  0  0
  1  2  2  0  0  0  0 
  1  3  1  0  0  0  0 
  1  4  1  0  0  0  0 
  4  5  2  0  0  0  0 
  4  9  1  0  0  0  0 
  5  6  1  0  0  0  0 
  6  7  2  0  0  0  0 
  7  8  1  0  0  0  0 
  8  9  2  0  0  0  0 
  9 10  1  0  0  0  0 
M  CHG  1   1   1
M  CHG  1   3  -1
M  END
> <CDK Fingerprint>
EAIAACIAIAgAAAAAAAgAAAAAGEAAAAAAAAQABgAAAGAABAAAAAAAAAgAAABgAAAAAgAAAEAEAAAAAAAAAAQAAQAAAAAAAAAAAACAAAAAAAAAAAAAAIAAAAAQgAAgAAQAQCAAAABAIAJAAAAAAAAAAIAAAAAAAAAAAAIQAA==

> <ActivityOutcome_CPDBAS_Rat>
active

> <TD50_Rat_mmol>
0.034

$$$$

  CDK     0721101958

 10 10  0  0  0  0  0  0  0  0999 V2000
    3.3279   -2.4780    0.0000 C   0  0  0  0  0  4  0  0  0  0  0  0
    1.9991   -2.4780    0.0000 C   0  0  0  0  0  4  0  0  0  0  0  0
    3.9863   -1.3228    0.0000 C   0  0  0  0  0  4  0  0  0  0  0  0
    1.3288   -1.3228    0.0000 C   0  0  0  0  0  4  0  0  0  0  0  0
    1.9991   -0.1915    0.0000 C   0  0  0  0  0  4  0  0  0  0  0  0
    0.0000   -1.3228    0.0000 C   0  0  0  0  0  4  0  0  0  0  0  0
    3.3279   -0.1915    0.0000 C   0  0  0  0  0  4  0  0  0  0  0  0
    5.3150   -1.3228    0.0000 N   0  0  0  0  0  4  0  0  0  0  0  0
    5.9854   -2.4780    0.0000 O   0  0  0  0  0  2  0  0  0  0  0  0
    5.6323    0.0000    0.0000 O   0  0  0  0  0  1  0  0  0  0  0  0
  1  2  2  0  0  0  0 
  1  3  1  0  0  0  0 
  2  4  1  0  0  0  0 
  3  7  2  0  0  0  0 
  3  8  1  0  0  0  0 
  4  5  2  0  0  0  0 
  4  6  1  0  0  0  0 
  5  7  1  0  0  0  0 
  8  9  2  0  0  0  0 
  8 10  1  0  0  0  0 
M  CHG  1   8   1
M  CHG  1  10  -1
M  END
> <CDK Fingerprint>
EAIAACAAAAgAAAAAAAgAAAAAGEEAAABAAAQABgAAAGAABAAAAAAAAAAAAAAgAAAAAgAAAEAEAAAAAAAAAAQAAAAAAAAAAAAAAACAAAAAAAAAAAAAAIAAAAAQgAAgAAQAQCAAAABAIAJAgAAAAAAAAIAAAAAAAAAAAAIQAA==

> <ActivityOutcome_CPDBAS_Rat>
active

> <TD50_Rat_mmol>
1.87

$$$$

  CDK     0721101958

 13 15  0  0  0  0  0  0  0  0999 V2000
    3.7329   -2.1413    0.0000 C   0  0  0  0  0  4  0  0  0  0  0  0
    2.4289   -1.8664    0.0000 C   0  0  0  0  0  4  0  0  0  0  0  0
    2.2883   -0.5433    0.0000 C   0  0  0  0  0  4  0  0  0  0  0  0
    1.0738    0.0000    0.0000 C   0  0  0  0  0  4  0  0  0  0  0  0
    0.0000   -0.7798    0.0000 N   0  0  0  0  0  3  0  0  0  0  0  0
    0.1406   -2.1029    0.0000 C   0  0  0  0  0  4  0  0  0  0  0  0
    1.3551   -2.6462    0.0000 C   0  0  0  0  0  4  0  0  0  0  0  0
    3.5091    0.0000    0.0000 N   0  0  0  0  0  3  0  0  0  0  0  0
    4.3976   -0.9907    0.0000 C   0  0  0  0  0  4  0  0  0  0  0  0
    5.7271   -0.9907    0.0000 C   0  0  0  0  0  4  0  0  0  0  0  0
    6.3919   -2.1413    0.0000 C   0  0  0  0  0  4  0  0  0  0  0  0
    5.7271   -3.2918    0.0000 C   0  0  0  0  0  4  0  0  0  0  0  0
    4.3976   -3.2918    0.0000 C   0  0  0  0  0  4  0  0  0  0  0  0
  1  2  1  0  0  0  0 
  1  9  2  0  0  0  0 
  1 13  1  0  0  0  0 
  2  3  1  0  0  0  0 
  2  7  2  0  0  0  0 
  3  4  2  0  0  0  0 
  3  8  1  0  0  0  0 
  4  5  1  0  0  0  0 
  5  6  2  0  0  0  0 
  6  7  1  0  0  0  0 
  8  9  1  0  0  0  0 
  9 10  1  0  0  0  0 
 10 11  2  0  0  0  0 
 11 12  1  0  0  0  0 
 12 13  2  0  0  0  0 
M  END
> <CDK Fingerprint>
AgGRAgAAiAAsAgIAAAAAAAAgAAAAEAAAAAAACAAAAADgAABADAAAAAAAACAIAAAAACAAAABAAAAAAJAAAAEAAAAAAIAgAAABAAAAAAAAgAAAgAAAEAAgIAAAAgAAIEAAEQAgiIEAAAACAQAAAAAAAACACEACQAAAAAAAAAA=

> <ActivityOutcome_CPDBAS_Rat>
inactive

$$$$

  CDK     0721101958

 28 30  0  0  0  0  0  0  0  0999 V2000
   10.3725   -2.6589    0.0000 C   0  0  0  0  0  4  0  0  0  0  0  0
    8.0598   -2.6589    0.0000 C   0  0  0  0  0  4  0  0  0  0  0  0
   11.5220   -1.9942    0.0000 C   0  0  0  0  0  4  0  0  0  0  0  0
    9.2093   -1.9942    0.0000 C   0  0  0  0  0  4  0  0  0  0  0  0
   10.3725   -3.9745    0.0000 C   0  0  0  0  0  4  0  0  0  0  0  0
    6.9243   -1.9942    0.0000 C   0  0  0  0  0  4  0  0  0  0  0  0
    8.0598   -3.9745    0.0000 C   0  0  0  0  0  4  0  0  0  0  0  0
   12.6714   -2.6589    0.0000 O   0  0  0  0  0  2  0  0  0  0  0  0
    9.2093   -4.6393    0.0000 C   0  0  0  0  0  4  0  0  0  0  0  0
    5.7610   -2.6589    0.0000 N   0  0  0  0  0  3  0  0  0  0  0  0
    4.6116   -1.9942    0.0000 C   0  0  0  0  0  4  0  0  0  0  0  0
    4.6116   -0.6647    0.0000 C   0  0  0  0  0  4  0  0  0  0  0  0
   11.5220   -4.6393    0.0000 C   0  0  0  0  0  4  0  0  0  0  0  0
   11.5220   -0.6647    0.0000 O   0  0  0  0  0  2  0  0  0  0  0  0
    6.9243   -0.6647    0.0000 O   0  0  0  0  0  2  0  0  0  0  0  0
   12.6714   -3.9745    0.0000 C   0  0  0  0  0  4  0  0  0  0  0  0
    3.4483   -2.6589    0.0000 C   0  0  0  0  0  4  0  0  0  0  0  0
    3.4621    0.0000    0.0000 O   0  0  0  0  0  2  0  0  0  0  0  0
    9.2093   -0.6647    0.0000 O   0  0  0  0  0  2  0  0  0  0  0  0
    9.2093   -5.9687    0.0000 Cl  0  0  0  0  0  1  0  0  0  0  0  0
    5.7748    0.0000    0.0000 O   0  0  0  0  0  2  0  0  0  0  0  0
    2.3127   -1.9942    0.0000 C   0  0  0  0  0  4  0  0  0  0  0  0
   13.8485   -4.6531    0.0000 C   0  0  0  0  0  4  0  0  0  0  0  0
    1.1633   -2.6589    0.0000 C   0  0  0  0  0  4  0  0  0  0  0  0
    2.3127   -0.6647    0.0000 C   0  0  0  0  0  4  0  0  0  0  0  0
    1.1633    0.0000    0.0000 C   0  0  0  0  0  4  0  0  0  0  0  0
    0.0000   -1.9942    0.0000 C   0  0  0  0  0  4  0  0  0  0  0  0
    0.0000   -0.6647    0.0000 C   0  0  0  0  0  4  0  0  0  0  0  0
  1  3  1  0  0  0  0 
  1  4  1  0  0  0  0 
  1  5  2  0  0  0  0 
  2  4  2  0  0  0  0 
  2  6  1  0  0  0  0 
  2  7  1  0  0  0  0 
  3  8  1  0  0  0  0 
  3 14  2  0  0  0  0 
  4 19  1  0  0  0  0 
  5  9  1  0  0  0  0 
  5 13  1  0  0  0  0 
  6 10  1  0  0  0  0 
  6 15  2  0  0  0  0 
  7  9  2  0  0  0  0 
  8 16  1  0  0  0  0 
  9 20  1  0  0  0  0 
 10 11  1  0  0  0  0 
 11 12  1  1  0  0  0 
 11 17  1  0  0  0  0 
 12 18  2  0  0  0  0 
 12 21  1  0  0  0  0 
 13 16  1  0  0  0  0 
 16 23  1  6  0  0  0 
 17 22  1  0  0  0  0 
 22 24  2  0  0  0  0 
 22 25  1  0  0  0  0 
 24 27  1  0  0  0  0 
 25 26  2  0  0  0  0 
 26 28  1  0  0  0  0 
 27 28  2  0  0  0  0 
M  END
> <CDK Fingerprint>
AIuEmESAEAGAQxaCEqABCRAAKUUIgIACyOA2EACAACxsXAAi6QCAKJTIABAEBMBB+DBG0KQaIQAgQBDmKMBACTOAHixEAAQAAQwAAhgiEASwAAIQQKCAgEABgxAEQCqSoCAISA3BZaQCagAgWkAYBAnMoJ4IiVYZRCgBESQAAkAA

> <ActivityOutcome_CPDBAS_Rat>
active

> <TD50_Rat_mmol>
0.000337

$$$$

  CDK     0721101958

 16 16  0  0  0  0  0  0  0  0999 V2000
    3.3290   -4.6094    0.0000 Cl  0  0  0  0  0  1  0  0  0  0  0  0
    3.9875   -3.4607    0.0000 C   0  0  0  0  0  4  0  0  0  0  0  0
    3.3290   -2.3047    0.0000 C   0  0  0  0  0  4  0  0  0  0  0  0
    3.9875   -1.1560    0.0000 C   0  0  0  0  0  4  0  0  0  0  0  0
    5.3191   -1.1560    0.0000 C   0  0  0  0  0  4  0  0  0  0  0  0
    5.9850   -2.3047    0.0000 C   0  0  0  0  0  4  0  0  0  0  0  0
    5.3191   -3.4607    0.0000 C   0  0  0  0  0  4  0  0  0  0  0  0
    5.9850   -4.6094    0.0000 Cl  0  0  0  0  0  1  0  0  0  0  0  0
    7.3166   -2.3047    0.0000 Cl  0  0  0  0  0  1  0  0  0  0  0  0
    5.9850    0.0000    0.0000 Cl  0  0  0  0  0  1  0  0  0  0  0  0
    3.3290    0.0000    0.0000 Cl  0  0  0  0  0  1  0  0  0  0  0  0
    1.9974   -2.3047    0.0000 C   0  0  0  0  0  4  0  0  0  0  0  0
    1.3316   -3.4607    0.0000 C   0  0  0  0  0  4  0  0  0  0  0  0
    0.0000   -3.4607    0.0000 Cl  0  0  0  0  0  1  0  0  0  0  0  0
    1.9974   -4.6094    0.0000 Cl  0  0  0  0  0  1  0  0  0  0  0  0
    1.3316   -1.1560    0.0000 Cl  0  0  0  0  0  1  0  0  0  0  0  0
  1  2  1  0  0  0  0 
  2  3  2  0  0  0  0 
  2  7  1  0  0  0  0 
  3  4  1  0  0  0  0 
  3 12  1  0  0  0  0 
  4  5  2  0  0  0  0 
  4 11  1  0  0  0  0 
  5  6  1  0  0  0  0 
  5 10  1  0  0  0  0 
  6  7  2  0  0  0  0 
  6  9  1  0  0  0  0 
  7  8  1  0  0  0  0 
 12 13  2  0  0  0  0 
 12 16  1  0  0  0  0 
 13 14  1  0  0  0  0 
 13 15  1  0  0  0  0 
M  END
> <CDK Fingerprint>
AUgAQBAEAEAAAAAYAAAAAAAAAAAAAAAAAAAAAIAIAAAAQADAAAAAAAAAAAQAIABAIAIAAA4AEABAQEAIAAAAQQEEAAAAAAAQAAAAAAAAAAAABgAiwAAAAAGBAAAAAIAAIAAQAMAgBAAggIFCQAIIAABAAACCAAAAAAAAAAAAAAA=

> <ActivityOutcome_CPDBAS_Rat>
inactive

$$$$

  CDK     0721101958

 13 14  0  0  0  0  0  0  0  0999 V2000
    2.4281    0.0000    0.0000 C   0  0  0  0  0  4  0  0  0  0  0  0
    2.3556   -1.3264    0.0000 C   0  0  0  0  0  4  0  0  0  0  0  0
    3.3921   -2.1672    0.0000 C   0  0  0  0  0  4  0  0  0  0  0  0
    2.9137   -3.4066    0.0000 S   0  0  0  0  0  2  0  0  0  0  0  0
    1.5873   -3.3341    0.0000 S   0  0  0  0  0  2  0  0  0  0  0  0
    1.2394   -2.0512    0.0000 C   0  0  0  0  0  4  0  0  0  0  0  0
    0.0000   -1.5728    0.0000 S   0  0  0  0  0  2  0  0  0  0  0  0
    4.6750   -1.8193    0.0000 C   0  0  0  0  0  4  0  0  0  0  0  0
    5.0229   -0.5364    0.0000 C   0  0  0  0  0  4  0  0  0  0  0  0
    6.3059   -0.1885    0.0000 N   0  0  0  0  0  3  0  0  0  0  0  0
    7.2481   -1.1307    0.0000 C   0  0  0  0  0  4  0  0  0  0  0  0
    6.9002   -2.4136    0.0000 C   0  0  0  0  0  4  0  0  0  0  0  0
    5.6173   -2.7615    0.0000 N   0  0  0  0  0  3  0  0  0  0  0  0
  1  2  1  0  0  0  0 
  2  3  2  0  0  0  0 
  2  6  1  0  0  0  0 
  3  4  1  0  0  0  0 
  3  8  1  0  0  0  0 
  4  5  1  0  0  0  0 
  5  6  1  0  0  0  0 
  6  7  2  0  0  0  0 
  8  9  2  0  0  0  0 
  8 13  1  0  0  0  0 
  9 10  1  0  0  0  0 
 10 11  2  0  0  0  0 
 11 12  1  0  0  0  0 
 12 13  2  0  0  0  0 
M  END
> <CDK Fingerprint>
QAgCQIACITABgGYCABAAAAkEEAAEIACEIADAAAggAAAQgWAIAAABoCAQAAQFQAggCBgJEgASEUgAABBBIgACISAgAASCIIAAoQACYQDkACAAwAGBAE4AUTAAQCEBkAAAAAAQAACAAGAIcAAAABEggKAAAABwCBAASADBCAAAEA==

> <ActivityOutcome_CPDBAS_Rat>
inactive

$$$$

  CDK     0721101958

 24 26  0  0  0  0  0  0  0  0999 V2000
    8.6485   -4.6107    0.0000 O   0  0  0  0  0  2  0  0  0  0  0  0
    7.9919   -3.4650    0.0000 S   0  0  0  0  0  4  0  0  0  0  0  0
    6.6506   -3.4650    0.0000 C   0  0  0  0  0  4  0  0  0  0  0  0
    5.8682   -2.3892    0.0000 N   0  0  0  0  0  3  0  0  0  0  0  0
    4.6107   -2.7944    0.0000 C   0  0  0  0  0  4  0  0  0  0  0  0
    4.6107   -4.1217    0.0000 C   0  0  0  0  0  4  0  0  0  0  0  0
    3.4510   -4.7923    0.0000 C   0  0  0  0  0  4  0  0  0  0  0  0
    2.3053   -4.1217    0.0000 C   0  0  0  0  0  4  0  0  0  0  0  0
    2.3053   -2.7944    0.0000 C   0  0  0  0  0  4  0  0  0  0  0  0
    3.4510   -2.1377    0.0000 C   0  0  0  0  0  4  0  0  0  0  0  0
    1.1457   -2.1377    0.0000 O   0  0  0  0  0  2  0  0  0  0  0  0
    0.0000   -2.7944    0.0000 C   0  0  0  0  0  4  0  0  0  0  0  0
    5.8682   -4.5408    0.0000 N   0  0  0  0  0  3  0  0  0  0  0  0
    8.6485   -2.3053    0.0000 C   0  0  0  0  0  4  0  0  0  0  0  0
    9.9759   -2.3053    0.0000 C   0  0  0  0  0  4  0  0  0  0  0  0
   10.6465   -1.1597    0.0000 C   0  0  0  0  0  4  0  0  0  0  0  0
   11.9738   -1.1597    0.0000 C   0  0  0  0  0  4  0  0  0  0  0  0
   12.6445   -2.3053    0.0000 C   0  0  0  0  0  4  0  0  0  0  0  0
   11.9738   -3.4650    0.0000 C   0  0  0  0  0  4  0  0  0  0  0  0
   10.6465   -3.4650    0.0000 N   0  0  0  0  0  3  0  0  0  0  0  0
   13.9718   -2.3053    0.0000 C   0  0  0  0  0  4  0  0  0  0  0  0
   12.6445    0.0000    0.0000 O   0  0  0  0  0  2  0  0  0  0  0  0
   13.9718    0.0000    0.0000 C   0  0  0  0  0  4  0  0  0  0  0  0
    9.9759    0.0000    0.0000 C   0  0  0  0  0  4  0  0  0  0  0  0
  1  2  2  0  0  0  0 
  2  3  1  0  0  0  0 
  2 14  1  0  0  0  0 
  3  4  2  0  0  0  0 
  3 13  1  0  0  0  0 
  4  5  1  0  0  0  0 
  5  6  2  0  0  0  0 
  5 10  1  0  0  0  0 
  6  7  1  0  0  0  0 
  6 13  1  0  0  0  0 
  7  8  2  0  0  0  0 
  8  9  1  0  0  0  0 
  9 10  2  0  0  0  0 
  9 11  1  0  0  0  0 
 11 12  1  0  0  0  0 
 14 15  1  0  0  0  0 
 15 16  2  0  0  0  0 
 15 20  1  0  0  0  0 
 16 17  1  0  0  0  0 
 16 24  1  0  0  0  0 
 17 18  2  0  0  0  0 
 17 22  1  0  0  0  0 
 18 19  1  0  0  0  0 
 18 21  1  0  0  0  0 
 19 20  2  0  0  0  0 
 22 23  1  0  0  0  0 
M  END
> <CDK Fingerprint>
AICgEQYikToFZAiwL4AQCCEALAgQACAMQMAgAAAQxIgEgAQTYYwAEKSAgAgAACRACDEAKKEICoAAwBAGA0ABAAoJOhBQFAA1wQoBBJcAQIDAApAAALAgwJFwiSFADICpACBAwBDgZaogSCQCAsAAmRQAZUgQpBAQDADBCAgA4KBC

> <ActivityOutcome_CPDBAS_Rat>
active

> <TD50_Rat_mmol>
0.345

$$$$

  CDK     0721101958

 30 31  0  0  0  0  0  0  0  0999 V2000
    5.7560   -0.4951    0.0000 C   0  0  0  0  0  4  0  0  0  0  0  0
    6.8907   -1.1760    0.0000 S   0  0  0  0  0  6  0  0  0  0  0  0
    6.2305   -2.3107    0.0000 O   0  0  0  0  0  2  0  0  0  0  0  0
    7.5715    0.0000    0.0000 O   0  0  0  0  0  2  0  0  0  0  0  0
    8.0460   -1.8155    0.0000 N   0  0  0  0  0  3  0  0  0  0  0  0
    8.0460   -3.1565    0.0000 C   0  0  0  0  0  4  0  0  0  0  0  0
    6.8907   -3.8373    0.0000 N   0  0  0  0  0  3  0  0  0  0  0  0
    5.7560   -3.1565    0.0000 C   0  0  0  0  0  4  0  0  0  0  0  0
    4.6007   -3.8373    0.0000 C   0  0  0  0  0  4  0  0  0  0  0  0
    4.6007   -5.1577    0.0000 O   0  0  0  0  0  2  0  0  0  0  0  0
    3.4454   -3.1565    0.0000 C   0  0  0  0  0  4  0  0  0  0  0  0
    2.3107   -3.8373    0.0000 C   0  0  0  0  0  4  0  0  0  0  0  0
    3.4454   -1.8155    0.0000 C   0  0  0  0  0  4  0  0  0  0  0  0
    1.1347   -3.1565    0.0000 C   0  0  0  0  0  4  0  0  0  0  0  0
    2.3107   -1.1760    0.0000 C   0  0  0  0  0  4  0  0  0  0  0  0
    1.1347   -1.8155    0.0000 C   0  0  0  0  0  4  0  0  0  0  0  0
    0.0000   -1.1760    0.0000 O   0  0  0  0  0  2  0  0  0  0  0  0
    9.2014   -3.8373    0.0000 N   0  0  0  0  0  3  0  0  0  0  0  0
   10.3567   -3.1565    0.0000 C   0  0  0  0  0  4  0  0  0  0  0  0
   11.4914   -3.8373    0.0000 C   0  0  0  0  0  4  0  0  0  0  0  0
   12.6467   -3.1565    0.0000 S   0  0  0  0  0  2  0  0  0  0  0  0
   13.8020   -3.8373    0.0000 C   0  0  0  0  0  4  0  0  0  0  0  0
   16.0508   -4.0436    0.0000 O   0  0  0  0  0  2  0  0  0  0  0  0
   17.1030   -3.2597    0.0000 C   0  0  0  0  0  4  0  0  0  0  0  0
   14.9780   -3.2597    0.0000 C   0  0  0  0  0  4  0  0  0  0  0  0
   16.6904   -2.0012    0.0000 C   0  0  0  0  0  4  0  0  0  0  0  0
   15.3700   -2.0012    0.0000 C   0  0  0  0  0  4  0  0  0  0  0  0
   18.3821   -3.6723    0.0000 C   0  0  0  0  0  4  0  0  0  0  0  0
   19.3724   -2.7852    0.0000 N   0  0  0  0  0  3  0  0  0  0  0  0
   20.6308   -3.1978    0.0000 C   0  0  0  0  0  4  0  0  0  0  0  0
  1  2  1  0  0  0  0 
  2  3  2  0  0  0  0 
  2  5  1  0  0  0  0 
  2  4  2  0  0  0  0 
  5  6  2  0  0  0  0 
  6  7  1  0  0  0  0 
  6 18  1  0  0  0  0 
  7  8  1  0  0  0  0 
  8  9  1  0  0  0  0 
  9 10  1  0  0  0  0 
  9 11  1  0  0  0  0 
 11 12  2  0  0  0  0 
 11 13  1  0  0  0  0 
 12 14  1  0  0  0  0 
 13 15  2  0  0  0  0 
 14 16  2  0  0  0  0 
 15 16  1  0  0  0  0 
 16 17  1  0  0  0  0 
 18 19  1  0  0  0  0 
 19 20  1  0  0  0  0 
 20 21  1  0  0  0  0 
 21 22  1  0  0  0  0 
 22 25  1  0  0  0  0 
 23 24  1  0  0  0  0 
 23 25  1  0  0  0  0 
 24 26  2  0  0  0  0 
 24 28  1  0  0  0  0 
 25 27  2  0  0  0  0 
 26 27  1  0  0  0  0 
 28 29  1  0  0  0  0 
 29 30  1  0  0  0  0 
M  END
> <CDK Fingerprint>
AQCAAAEIQaYiUBRaAAOMCFgiIgCIiIQCgAIAAAAABCVICBvhIACIxIEYggAAcAAIYARgJAQDInDAHAAQwAAgDAAUDIACABEBGgAGESAEAKGEUQZCoAEEQFmFECABCIAMIAJKBFElbACAABBKwAAUCADw1gCgwAUEEKESCAyCgQE=

> <ActivityOutcome_CPDBAS_Rat>
inactive

$$$$

  CDK     0721101958

 14 13  0  0  0  0  0  0  0  0999 V2000
    5.3253   -4.6067    0.0000 O   0  0  0  0  0  2  0  0  0  0  0  0
    5.9879   -3.4570    0.0000 C   0  0  0  0  0  4  0  0  0  0  0  0
    5.3253   -2.2994    0.0000 C   0  0  0  0  0  4  0  0  0  0  0  0
    3.9920   -2.2994    0.0000 N   0  0  0  0  0  3  0  0  0  0  0  0
    3.3293   -1.1497    0.0000 O   0  0  0  0  0  2  0  0  0  0  0  0
    1.9960   -1.1497    0.0000 C   0  0  0  0  0  4  0  0  0  0  0  0
    1.3333    0.0000    0.0000 O   0  0  0  0  0  2  0  0  0  0  0  0
    1.3333   -2.2994    0.0000 N   0  0  0  0  0  3  0  0  0  0  0  0
    0.0000   -2.2994    0.0000 C   0  0  0  0  0  4  0  0  0  0  0  0
    5.9879   -1.1497    0.0000 S   0  0  0  0  0  2  0  0  0  0  0  0
    5.3253    0.0000    0.0000 C   0  0  0  0  0  4  0  0  0  0  0  0
    7.3213   -3.4570    0.0000 N   0  0  0  0  0  3  0  0  0  0  0  0
    7.9839   -2.2994    0.0000 C   0  0  0  0  0  4  0  0  0  0  0  0
    7.9839   -4.6067    0.0000 C   0  0  0  0  0  4  0  0  0  0  0  0
  1  2  2  0  0  0  0 
  2  3  1  0  0  0  0 
  2 12  1  0  0  0  0 
  3  4  2  0  0  0  0 
  3 10  1  0  0  0  0 
  4  5  1  0  0  0  0 
  5  6  1  0  0  0  0 
  6  7  2  0  0  0  0 
  6  8  1  0  0  0  0 
  8  9  1  0  0  0  0 
 10 11  1  0  0  0  0 
 12 13  1  0  0  0  0 
 12 14  1  0  0  0  0 
M  END
> <CDK Fingerprint>
QAAAAAAEQAACABCKAAAAAAgQAAgAgAAAAAAAEgAAAAAAUBFgAgEABACBAAAEAAAAICQCFAAZQAAEAAAAgAAIAIAAAAAAAACAAAEAEAAACIAAgAEAiAAgAEAAAQAAAEAAAAFCAAAAAAAAAAAAgAAIgIAgAAAAUABAAgAAAAACAAE=

> <ActivityOutcome_CPDBAS_Rat>
inactive

$$$$

  CDK     0721101958

 20 22  0  0  0  0  0  0  0  0999 V2000
    1.6905    0.0000    0.0000 Cl  0  0  0  0  0  1  0  0  0  0  0  0
    2.8391   -0.6633    0.0000 C   0  0  0  0  0  4  0  0  0  0  0  0
    3.9958    0.0000    0.0000 C   0  0  0  0  0  4  0  0  0  0  0  0
    5.1444   -0.6633    0.0000 C   0  0  0  0  0  4  0  0  0  0  0  0
    5.1444   -1.9979    0.0000 C   0  0  0  0  0  4  0  0  0  0  0  0
    3.9958   -2.6612    0.0000 C   0  0  0  0  0  4  0  0  0  0  0  0
    2.8391   -1.9979    0.0000 C   0  0  0  0  0  4  0  0  0  0  0  0
    3.7774   -3.9958    0.0000 C   0  0  0  0  0  4  0  0  0  0  0  0
    4.7157   -4.9341    0.0000 N   0  0  0  0  0  3  0  0  0  0  0  0
    6.0261   -4.8532    0.0000 C   0  0  0  0  0  4  0  0  0  0  0  0
    6.6894   -6.0018    0.0000 O   0  0  0  0  0  2  0  0  0  0  0  0
    6.7703   -3.7532    0.0000 C   0  0  0  0  0  4  0  0  0  0  0  0
    8.0887   -3.9554    0.0000 O   0  0  0  0  0  2  0  0  0  0  0  0
    6.3820   -2.4832    0.0000 N   0  0  0  0  0  3  0  0  0  0  0  0
    2.5075   -4.3841    0.0000 C   0  0  0  0  0  4  0  0  0  0  0  0
    2.2244   -5.6621    0.0000 C   0  0  0  0  0  4  0  0  0  0  0  0
    0.9383   -6.0746    0.0000 C   0  0  0  0  0  4  0  0  0  0  0  0
    0.0000   -5.1363    0.0000 C   0  0  0  0  0  4  0  0  0  0  0  0
    0.2750   -3.8583    0.0000 C   0  0  0  0  0  4  0  0  0  0  0  0
    1.5692   -3.4458    0.0000 C   0  0  0  0  0  4  0  0  0  0  0  0
  1  2  1  0  0  0  0 
  2  3  2  0  0  0  0 
  2  7  1  0  0  0  0 
  3  4  1  0  0  0  0 
  4  5  2  0  0  0  0 
  5  6  1  0  0  0  0 
  5 14  1  0  0  0  0 
  6  7  2  0  0  0  0 
  6  8  1  0  0  0  0 
  8  9  2  0  0  0  0 
  8 15  1  0  0  0  0 
  9 10  1  0  0  0  0 
 10 11  1  0  0  0  0 
 10 12  1  0  0  0  0 
 12 13  2  0  0  0  0 
 12 14  1  0  0  0  0 
 15 16  2  0  0  0  0 
 15 20  1  0  0  0  0 
 16 17  1  0  0  0  0 
 17 18  2  0  0  0  0 
 18 19  1  0  0  0  0 
 19 20  2  0  0  0  0 
M  END
> <CDK Fingerprint>
AQAACAAgQjAjAgCCAIsIAJgBBCAAAGNJEQEAAAUUwFIIoA3gAAABCAAAAAB2QwCoYIAEAAACAgBAIRABzCQJAcAEWAAAAQEQAAAAIASAILAIAglCAAAADNGBEQgAALAgYIDQAMAgBRCIwBB6QAAUAIEAFCDEUUBJIIIAAAACkgg=

> <ActivityOutcome_CPDBAS_Rat>
inactive

$$$$

  CDK     0721101958

 18 20  0  0  0  0  0  0  0  0999 V2000
    5.7635   -1.7600    0.0000 C   0  0  0  0  0  4  0  0  0  0  0  0
    7.0207   -1.3538    0.0000 C   0  0  0  0  0  4  0  0  0  0  0  0
    7.8040   -2.4273    0.0000 C   0  0  0  0  0  4  0  0  0  0  0  0
    9.1288   -2.2919    0.0000 C   0  0  0  0  0  4  0  0  0  0  0  0
    9.6703   -1.0734    0.0000 C   0  0  0  0  0  4  0  0  0  0  0  0
    8.8870    0.0000    0.0000 C   0  0  0  0  0  4  0  0  0  0  0  0
    7.5622   -0.1354    0.0000 C   0  0  0  0  0  4  0  0  0  0  0  0
    7.0207   -3.5007    0.0000 C   0  0  0  0  0  4  0  0  0  0  0  0
    5.7635   -3.0945    0.0000 C   0  0  0  0  0  4  0  0  0  0  0  0
    4.6031   -3.7521    0.0000 C   0  0  0  0  0  4  0  0  0  0  0  0
    3.4523   -3.0945    0.0000 C   0  0  0  0  0  4  0  0  0  0  0  0
    3.4523   -1.7600    0.0000 C   0  0  0  0  0  4  0  0  0  0  0  0
    4.6031   -1.0927    0.0000 C   0  0  0  0  0  4  0  0  0  0  0  0
    2.3015   -3.7521    0.0000 N   0  0  0  0  0  3  0  0  0  0  0  0
    1.1508   -3.0945    0.0000 C   0  0  0  0  0  4  0  0  0  0  0  0
    0.0000   -3.7521    0.0000 C   0  0  0  0  0  4  0  0  0  0  0  0
    1.1508   -1.7600    0.0000 O   0  0  0  0  0  2  0  0  0  0  0  0
    7.4365   -4.7675    0.0000 O   0  0  0  0  0  2  0  0  0  0  0  0
  1  2  1  0  0  0  0 
  1  9  1  0  0  0  0 
  1 13  2  0  0  0  0 
  2  3  2  0  0  0  0 
  2  7  1  0  0  0  0 
  3  4  1  0  0  0  0 
  3  8  1  0  0  0  0 
  4  5  2  0  0  0  0 
  5  6  1  0  0  0  0 
  6  7  2  0  0  0  0 
  8  9  1  0  0  0  0 
  8 18  2  0  0  0  0 
  9 10  2  0  0  0  0 
 10 11  1  0  0  0  0 
 11 12  2  0  0  0  0 
 11 14  1  0  0  0  0 
 12 13  1  0  0  0  0 
 14 15  1  0  0  0  0 
 15 16  1  0  0  0  0 
 15 17  2  0  0  0  0 
M  END
> <CDK Fingerprint>
AIQAAAApICIFgAAAgCgBMAkAIAIQQEFBAAAAAgzEAxgAAGkgQRAEAIAAAAYAAoSgAAQAAgCGAEABAADAhAkAwAUMwACAAUAAAAAARIAg0AgAEADAAIAAAIAgAgAIgAAgYEkAQGQAQAAhQAJgAQ0ACAQUCoDQCsEYiAgEAAIQAA==

> <ActivityOutcome_CPDBAS_Rat>
active

> <TD50_Rat_mmol>
0.026

$$$$

  CDK     0721101958

 19 21  0  0  0  0  0  0  0  0999 V2000
    5.4994   -5.9830    0.0000 O   0  0  0  0  0  2  0  0  0  0  0  0
    5.4994   -4.6574    0.0000 C   0  0  0  0  0  4  0  0  0  0  0  0
    4.3529   -3.9857    0.0000 C   0  0  0  0  0  4  0  0  0  0  0  0
    3.1975   -4.6574    0.0000 C   0  0  0  0  0  4  0  0  0  0  0  0
    2.0421   -3.9857    0.0000 C   0  0  0  0  0  4  0  0  0  0  0  0
    2.0421   -2.6601    0.0000 C   0  0  0  0  0  4  0  0  0  0  0  0
    3.1975   -1.9973    0.0000 C   0  0  0  0  0  4  0  0  0  0  0  0
    4.3529   -2.6601    0.0000 C   0  0  0  0  0  4  0  0  0  0  0  0
    5.4994   -1.9973    0.0000 N   0  0  0  0  0  3  0  0  0  0  0  0
    6.6548   -2.6601    0.0000 C   0  0  0  0  0  4  0  0  0  0  0  0
    6.6548   -3.9857    0.0000 C   0  0  0  0  0  4  0  0  0  0  0  0
    7.8012   -4.6574    0.0000 C   0  0  0  0  0  4  0  0  0  0  0  0
    7.8012   -5.9830    0.0000 O   0  0  0  0  0  2  0  0  0  0  0  0
    8.9566   -3.9857    0.0000 O   0  0  0  0  0  2  0  0  0  0  0  0
    5.4994   -0.6628    0.0000 C   0  0  0  0  0  4  0  0  0  0  0  0
    6.6548    0.0000    0.0000 C   0  0  0  0  0  4  0  0  0  0  0  0
    0.7792   -2.2481    0.0000 O   0  0  0  0  0  2  0  0  0  0  0  0
    0.0000   -3.3229    0.0000 C   0  0  0  0  0  4  0  0  0  0  0  0
    0.7792   -4.3977    0.0000 O   0  0  0  0  0  2  0  0  0  0  0  0
  1  2  2  0  0  0  0 
  2  3  1  0  0  0  0 
  2 11  1  0  0  0  0 
  3  4  2  0  0  0  0 
  3  8  1  0  0  0  0 
  4  5  1  0  0  0  0 
  5  6  2  0  0  0  0 
  5 19  1  0  0  0  0 
  6  7  1  0  0  0  0 
  6 17  1  0  0  0  0 
  7  8  2  0  0  0  0 
  8  9  1  0  0  0  0 
  9 10  1  0  0  0  0 
  9 15  1  0  0  0  0 
 10 11  2  0  0  0  0 
 11 12  1  0  0  0  0 
 12 13  2  0  0  0  0 
 12 14  1  0  0  0  0 
 15 16  1  0  0  0  0 
 17 18  1  0  0  0  0 
 18 19  1  0  0  0  0 
M  END
> <CDK Fingerprint>
QAuyGACATGIqx1KjAAgAgYgCAigFQEChAAJCTCRGasg0CnkIAA7EiAAIkCBiBJBoBPQgUBIaAGAAICLERQQAQHaYBAUKAEJGEAYEIIAAkAQRCAIQARAAALAREAAWgADgAELQQCCkYAISEDpsmoSjEhAdQIxyOFQggPJFIGoYRA==

> <ActivityOutcome_CPDBAS_Rat>
active

> <TD50_Rat_mmol>
0.639

$$$$

  CDK     0721101958

 13 12  0  0  0  0  0  0  0  0999 V2000
    3.3259   -3.4535    0.0000 O   0  0  0  0  0  2  0  0  0  0  0  0
    3.9879   -2.2970    0.0000 C   0  0  0  0  0  4  0  0  0  0  0  0
    3.3259   -1.1485    0.0000 N   0  0  0  0  0  3  0  0  0  0  0  0
    1.9939   -1.1485    0.0000 C   0  0  0  0  0  4  0  0  0  0  0  0
    1.3320   -2.2970    0.0000 C   0  0  0  0  0  4  0  0  0  0  0  0
    1.9939   -3.4535    0.0000 C   0  0  0  0  0  4  0  0  0  0  0  0
    0.0000   -2.2970    0.0000 O   0  0  0  0  0  2  0  0  0  0  0  0
    3.9879    0.0000    0.0000 N   0  0  0  0  0  3  0  0  0  0  0  0
    5.3199    0.0000    0.0000 O   0  0  0  0  0  2  0  0  0  0  0  0
    5.3199   -2.2970    0.0000 N   0  0  0  0  0  3  0  0  0  0  0  0
    5.9818   -3.4535    0.0000 C   0  0  0  0  0  4  0  0  0  0  0  0
    7.3138   -3.4535    0.0000 C   0  0  0  0  0  4  0  0  0  0  0  0
    7.9758   -4.6020    0.0000 Cl  0  0  0  0  0  1  0  0  0  0  0  0
  1  2  2  0  0  0  0 
  2  3  1  0  0  0  0 
  2 10  1  0  0  0  0 
  3  4  1  0  0  0  0 
  3  8  1  0  0  0  0 
  4  5  1  0  0  0  0 
  5  6  1  0  0  0  0 
  5  7  2  0  0  0  0 
  8  9  2  0  0  0  0 
 10 11  1  0  0  0  0 
 11 12  1  0  0  0  0 
 12 13  1  0  0  0  0 
M  END
> <CDK Fingerprint>
CAAAAAIQAEqAAYAAAAAbAAAQAAABAAEgAAAABAUAIOAAAALAgAAAAAAAgQEgAEEAAgAAAAAABADAAAADgAAACAAAAAEQAAAAAAAAgAAAAAAgAAAAAAAAAAAAAAEAAEQgAAAACAAAAAAAAAAAgABAAABQACAAAAAACAMAAA==

> <ActivityOutcome_CPDBAS_Rat>
inactive

$$$$

  CDK     0721101958

 10  9  0  0  0  0  0  0  0  0999 V2000
    2.3042   -1.9989    0.0000 N   0  0  0  0  0  3  0  0  0  0  0  0
    2.3042   -0.6682    0.0000 C   0  0  0  0  0  4  0  0  0  0  0  0
    3.4563    0.0000    0.0000 O   0  0  0  0  0  2  0  0  0  0  0  0
    1.1521    0.0000    0.0000 N   0  0  0  0  0  3  0  0  0  0  0  0
    1.1521   -2.6614    0.0000 N   0  0  0  0  0  3  0  0  0  0  0  0
    0.0000   -1.9989    0.0000 O   0  0  0  0  0  2  0  0  0  0  0  0
    3.4563   -2.6614    0.0000 C   0  0  0  0  0  4  0  0  0  0  0  0
    4.6084   -1.9989    0.0000 C   0  0  0  0  0  4  0  0  0  0  0  0
    5.7605   -2.6614    0.0000 C   0  0  0  0  0  4  0  0  0  0  0  0
    4.6084   -0.6682    0.0000 O   0  0  0  0  0  2  0  0  0  0  0  0
  1  2  1  0  0  0  0 
  1  5  1  0  0  0  0 
  1  7  1  0  0  0  0 
  2  3  2  0  0  0  0 
  2  4  1  0  0  0  0 
  5  6  2  0  0  0  0 
  7  8  1  0  0  0  0 
  8  9  1  0  0  0  0 
  8 10  2  0  0  0  0 
M  END
> <CDK Fingerprint>
AhAASoABgAAAABAAABAAAAAAAQAAAAAEBQAAYAAAAoAAAAAAAAABACAAQQACAAAAAAAEAMAAAAKAAAAAAAAAAAAAAAAAAACAAAAAACAAAAAAAAAAAAAAAAAARCAAAAAIAAAAAAAAAACAAAAAAFAAAAAAAAAAAwAA

> <ActivityOutcome_CPDBAS_Rat>
inactive

$$$$

  CDK     0721101958

 13 14  0  0  0  0  0  0  0  0999 V2000
    5.5009   -3.9872    0.0000 O   0  0  0  0  0  2  0  0  0  0  0  0
    5.5009   -2.6607    0.0000 C   0  0  0  0  0  4  0  0  0  0  0  0
    4.3461   -1.9897    0.0000 C   0  0  0  0  0  4  0  0  0  0  0  0
    3.1991   -2.6607    0.0000 C   0  0  0  0  0  4  0  0  0  0  0  0
    2.0443   -1.9897    0.0000 C   0  0  0  0  0  4  0  0  0  0  0  0
    0.7803   -2.4032    0.0000 O   0  0  0  0  0  2  0  0  0  0  0  0
    0.0000   -1.3265    0.0000 C   0  0  0  0  0  4  0  0  0  0  0  0
    0.7803   -0.2497    0.0000 O   0  0  0  0  0  2  0  0  0  0  0  0
    2.0443   -0.6632    0.0000 C   0  0  0  0  0  4  0  0  0  0  0  0
    3.1991    0.0000    0.0000 C   0  0  0  0  0  4  0  0  0  0  0  0
    4.3461   -0.6632    0.0000 C   0  0  0  0  0  4  0  0  0  0  0  0
    6.6479   -1.9897    0.0000 C   0  0  0  0  0  4  0  0  0  0  0  0
    7.8027   -2.6607    0.0000 C   0  0  0  0  0  4  0  0  0  0  0  0
  1  2  2  0  0  0  0 
  2  3  1  0  0  0  0 
  2 12  1  0  0  0  0 
  3  4  1  0  0  0  0 
  3 11  2  0  0  0  0 
  4  5  2  0  0  0  0 
  5  6  1  0  0  0  0 
  5  9  1  0  0  0  0 
  6  7  1  0  0  0  0 
  7  8  1  0  0  0  0 
  8  9  1  0  0  0  0 
  9 10  2  0  0  0  0 
 10 11  1  0  0  0  0 
 12 13  2  0  0  0  0 
M  END
> <CDK Fingerprint>
QAIACAAABEAIgAIAAAAAAAAAAigFAACAAAIAQABGCAgkAmkAAASEgAAIAAAAAAAgBOQgQAAQAEAAACBEAAAAAAYYAAAIAEJAAAIEAAAAgAQQAAAAAAAAAJABAAAAgAAgAELAQCAgYAIQAApMCgQCAhAUAIAwKEAAAKABICAAAA==

> <ActivityOutcome_CPDBAS_Rat>
inactive

$$$$

  CDK     0721101958

 15 16  0  0  0  0  0  0  0  0999 V2000
    9.2080   -2.6611    0.0000 N   0  0  0  0  0  3  0  0  0  0  0  0
    8.0570   -1.9981    0.0000 C   0  0  0  0  0  4  0  0  0  0  0  0
    6.9060   -2.6611    0.0000 C   0  0  0  0  0  4  0  0  0  0  0  0
    5.7550   -1.9981    0.0000 C   0  0  0  0  0  4  0  0  0  0  0  0
    5.7550   -0.6630    0.0000 C   0  0  0  0  0  4  0  0  0  0  0  0
    6.9060    0.0000    0.0000 C   0  0  0  0  0  4  0  0  0  0  0  0
    8.0570   -0.6630    0.0000 C   0  0  0  0  0  4  0  0  0  0  0  0
    4.6040    0.0000    0.0000 O   0  0  0  0  0  2  0  0  0  0  0  0
    3.4530   -0.6630    0.0000 C   0  0  0  0  0  4  0  0  0  0  0  0
    3.4530   -1.9981    0.0000 C   0  0  0  0  0  4  0  0  0  0  0  0
    2.3020   -2.6611    0.0000 C   0  0  0  0  0  4  0  0  0  0  0  0
    1.1510   -1.9981    0.0000 C   0  0  0  0  0  4  0  0  0  0  0  0
    1.1510   -0.6630    0.0000 C   0  0  0  0  0  4  0  0  0  0  0  0
    2.3020    0.0000    0.0000 C   0  0  0  0  0  4  0  0  0  0  0  0
    0.0000   -2.6611    0.0000 N   0  0  0  0  0  3  0  0  0  0  0  0
  1  2  1  0  0  0  0 
  2  3  2  0  0  0  0 
  2  7  1  0  0  0  0 
  3  4  1  0  0  0  0 
  4  5  2  0  0  0  0 
  5  6  1  0  0  0  0 
  5  8  1  0  0  0  0 
  6  7  2  0  0  0  0 
  8  9  1  0  0  0  0 
  9 10  2  0  0  0  0 
  9 14  1  0  0  0  0 
 10 11  1  0  0  0  0 
 11 12  2  0  0  0  0 
 12 13  1  0  0  0  0 
 12 15  1  0  0  0  0 
 13 14  2  0  0  0  0 
M  END
> <CDK Fingerprint>
IACAAgAAAAAAAAAAAoAAQIAAAAAABAACAAACYUAAAAQAAAAAAAAAAAgAACAAAAAAQAAAAAAAAAAAApQAAAAAAAAAAAQAAACAAAEAAAAAAAAAAAIAAAAAACAAAAEAICAgAAAAAgAAAAAAAAAAgAAAAAAAAAAAIhAA

> <ActivityOutcome_CPDBAS_Rat>
active

> <TD50_Rat_mmol>
0.0475

$$$$

  CDK     0721101958

 15 16  0  0  0  0  0  0  0  0999 V2000
    4.6510   -3.4580    0.0000 S   0  0  0  0  0  2  0  0  0  0  0  0
    3.9940   -2.3082    0.0000 C   0  0  0  0  0  4  0  0  0  0  0  0
    2.6626   -2.3082    0.0000 N   0  0  0  0  0  3  0  0  0  0  0  0
    1.9970   -3.4580    0.0000 C   0  0  0  0  0  4  0  0  0  0  0  0
    0.6657   -3.4580    0.0000 C   0  0  0  0  0  4  0  0  0  0  0  0
    0.0000   -2.3082    0.0000 O   0  0  0  0  0  2  0  0  0  0  0  0
    0.6657   -1.1584    0.0000 C   0  0  0  0  0  4  0  0  0  0  0  0
    1.9970   -1.1584    0.0000 C   0  0  0  0  0  4  0  0  0  0  0  0
    4.6510   -1.1584    0.0000 S   0  0  0  0  0  2  0  0  0  0  0  0
    5.9823   -1.1584    0.0000 N   0  0  0  0  0  3  0  0  0  0  0  0
    6.6480    0.0000    0.0000 C   0  0  0  0  0  4  0  0  0  0  0  0
    7.9793    0.0000    0.0000 C   0  0  0  0  0  4  0  0  0  0  0  0
    8.6450   -1.1584    0.0000 O   0  0  0  0  0  2  0  0  0  0  0  0
    7.9793   -2.3082    0.0000 C   0  0  0  0  0  4  0  0  0  0  0  0
    6.6480   -2.3082    0.0000 C   0  0  0  0  0  4  0  0  0  0  0  0
  1  2  2  0  0  0  0 
  2  3  1  0  0  0  0 
  2  9  1  0  0  0  0 
  3  4  1  0  0  0  0 
  3  8  1  0  0  0  0 
  4  5  1  0  0  0  0 
  5  6  1  0  0  0  0 
  6  7  1  0  0  0  0 
  7  8  1  0  0  0  0 
  9 10  1  0  0  0  0 
 10 11  1  0  0  0  0 
 10 15  1  0  0  0  0 
 11 12  1  0  0  0  0 
 12 13  1  0  0  0  0 
 13 14  1  0  0  0  0 
 14 15  1  0  0  0  0 
M  END
> <CDK Fingerprint>
AICQAAEgAACCACACAAAAAgUAEEQgAAAEggBAgAAAABAACgFgWIAABAAAIAAADCAIIAICAAGAAAAACAAAgAABgAAAAwAAAAAAQQAAAAAAAYAAAABCgAIAAAAQEAAAQAAAABAAAAAAAMABAAAAAAAAAAACCAAAIAEAAAABgQACAAA=

> <ActivityOutcome_CPDBAS_Rat>
active

> <TD50_Rat_mmol>
0.366

$$$$

  CDK     0721101958

 24 27  0  0  0  0  0  0  0  0999 V2000
    4.6045   -3.9468    0.0000 C   0  0  0  0  0  4  0  0  0  0  0  0
    8.0633   -1.9415    0.0000 C   0  0  0  0  0  4  0  0  0  0  0  0
    5.7292   -3.2996    0.0000 C   0  0  0  0  0  4  0  0  0  0  0  0
    8.0633   -3.2996    0.0000 C   0  0  0  0  0  4  0  0  0  0  0  0
    2.3023   -3.9574    0.0000 C   0  0  0  0  0  4  0  0  0  0  0  0
    6.9068   -3.9574    0.0000 C   0  0  0  0  0  4  0  0  0  0  0  0
    3.4481   -3.2996    0.0000 C   0  0  0  0  0  4  0  0  0  0  0  0
    4.6045   -5.2836    0.0000 C   0  0  0  0  0  4  0  0  0  0  0  0
    2.2917   -5.2729    0.0000 C   0  0  0  0  0  4  0  0  0  0  0  0
    9.3258   -1.5596    0.0000 C   0  0  0  0  0  4  0  0  0  0  0  0
    6.8856   -1.2944    0.0000 C   0  0  0  0  0  4  0  0  0  0  0  0
    5.7292   -1.9415    0.0000 C   0  0  0  0  0  4  0  0  0  0  0  0
    3.4481   -5.9626    0.0000 C   0  0  0  0  0  4  0  0  0  0  0  0
    9.3258   -3.7027    0.0000 C   0  0  0  0  0  4  0  0  0  0  0  0
    6.9068   -5.2836    0.0000 C   0  0  0  0  0  4  0  0  0  0  0  0
    1.1458   -3.2890    0.0000 C   0  0  0  0  0  4  0  0  0  0  0  0
    5.7292   -5.9626    0.0000 C   0  0  0  0  0  4  0  0  0  0  0  0
   10.0897   -2.6206    0.0000 C   0  0  0  0  0  4  0  0  0  0  0  0
    1.1458   -5.9414    0.0000 O   0  0  0  0  0  2  0  0  0  0  0  0
    4.6045   -2.6206    0.0000 C   0  0  0  0  0  4  0  0  0  0  0  0
    9.3895    0.0000    0.0000 O   0  0  0  0  0  2  0  0  0  0  0  0
    8.0845   -0.5517    0.0000 C   0  0  0  0  0  4  0  0  0  0  0  0
    0.0000   -3.9574    0.0000 O   0  0  0  0  0  2  0  0  0  0  0  0
   10.6096   -1.3050    0.0000 C   0  0  0  0  0  4  0  0  0  0  0  0
  1  3  1  0  0  0  0 
  1  7  1  0  0  0  0 
  1  8  1  0  0  0  0 
  1 20  1  1  0  0  0 
  2 11  1  0  0  0  0 
  2 10  1  0  0  0  0 
  2 22  1  1  0  0  0 
  2  4  1  0  0  0  0 
  3  6  1  0  0  0  0 
  3 12  1  0  0  0  0 
  4  6  1  0  0  0  0 
  4 14  1  0  0  0  0 
  5  7  1  0  0  0  0 
  5 16  2  0  0  0  0 
  5  9  1  0  0  0  0 
  6 15  1  0  0  0  0 
  8 13  1  0  0  0  0 
  8 17  1  0  0  0  0 
  9 13  1  0  0  0  0 
  9 19  2  0  0  0  0 
 10 21  1  1  0  0  0 
 10 24  1  6  0  0  0 
 10 18  1  0  0  0  0 
 11 12  1  0  0  0  0 
 14 18  1  0  0  0  0 
 15 17  1  0  0  0  0 
 16 23  1  0  0  0  0 
M  END
> <CDK Fingerprint>
QAAAAAAAAAAAAAIRAAQAAAAIAAAEBABAAAAAAAAAAAERCGAAAAAAAAAAACAQABAgECAAACAQAAAAACJAQAAAAAAAAAEAAAAAAAQAAAABAQAAAAAAAAAAAAAQAAAAAAAAAEAAABBAAAAAAAAAEAABAAAAgACwEABAAAAABAAAIA==

> <ActivityOutcome_CPDBAS_Rat>
active

> <TD50_Rat_mmol>
0.201

$$$$

  CDK     0721101958

 18 18  0  0  0  0  0  0  0  0999 V2000
    5.5046   -3.3251    0.0000 S   0  0  0  0  0  2  0  0  0  0  0  0
    6.6502   -2.6545    0.0000 P   0  0  0  0  0  5  0  0  0  0  0  0
    5.9889   -1.5089    0.0000 O   0  0  0  0  0  2  0  0  0  0  0  0
    4.6570   -1.5089    0.0000 C   0  0  0  0  0  4  0  0  0  0  0  0
    3.9957   -2.6545    0.0000 C   0  0  0  0  0  4  0  0  0  0  0  0
    2.6638   -2.6545    0.0000 C   0  0  0  0  0  4  0  0  0  0  0  0
    1.9932   -1.5089    0.0000 C   0  0  0  0  0  4  0  0  0  0  0  0
    2.6638   -0.3539    0.0000 C   0  0  0  0  0  4  0  0  0  0  0  0
    3.9957   -0.3539    0.0000 C   0  0  0  0  0  4  0  0  0  0  0  0
    0.6613   -1.5089    0.0000 N   0  0  0  0  0  4  0  0  0  0  0  0
    0.0000   -2.6545    0.0000 O   0  0  0  0  0  2  0  0  0  0  0  0
    0.0000   -0.3539    0.0000 O   0  0  0  0  0  1  0  0  0  0  0  0
    7.8051   -1.9932    0.0000 O   0  0  0  0  0  2  0  0  0  0  0  0
    7.8051   -0.6613    0.0000 C   0  0  0  0  0  4  0  0  0  0  0  0
    8.9601    0.0000    0.0000 C   0  0  0  0  0  4  0  0  0  0  0  0
    7.3208   -3.8094    0.0000 O   0  0  0  0  0  2  0  0  0  0  0  0
    8.6527   -3.8094    0.0000 C   0  0  0  0  0  4  0  0  0  0  0  0
    9.3140   -2.6545    0.0000 C   0  0  0  0  0  4  0  0  0  0  0  0
  1  2  2  0  0  0  0 
  2  3  1  0  0  0  0 
  2 13  1  0  0  0  0 
  2 16  1  0  0  0  0 
  3  4  1  0  0  0  0 
  4  5  2  0  0  0  0 
  4  9  1  0  0  0  0 
  5  6  1  0  0  0  0 
  6  7  2  0  0  0  0 
  7  8  1  0  0  0  0 
  7 10  1  0  0  0  0 
  8  9  2  0  0  0  0 
 10 11  2  0  0  0  0 
 10 12  1  0  0  0  0 
 13 14  1  0  0  0  0 
 14 15  1  0  0  0  0 
 16 17  1  0  0  0  0 
 17 18  1  0  0  0  0 
M  CHG  1  10   1
M  CHG  1  12  -1
M  END
> <CDK Fingerprint>
MCIAACBAAAoAAAAAAAgAAAAAGUgAAAEAAAQABgAAA2EUBAAAAAAAAgAgAAAgBABgAgAAIU4EQAAAAAIAAIEAAAAAAAAAQAAIAASAgCAJAAAAAAAAAAUQAgAUAAAgAEQAACAkCAJAIAIASACAAAgAAIAACAAAAgBDAAMQAA==

> <ActivityOutcome_CPDBAS_Rat>
inactive

$$$$

  CDK     0721101958

 11 12  0  0  0  0  0  0  0  0999 V2000
    5.2520   -3.4558    0.0000 O   0  0  0  0  0  2  0  0  0  0  0  0
    4.5850   -2.3056    0.0000 C   0  0  0  0  0  4  0  0  0  0  0  0
    3.2562   -2.3056    0.0000 C   0  0  0  0  0  4  0  0  0  0  0  0
    2.3686   -3.2930    0.0000 C   0  0  0  0  0  4  0  0  0  0  0  0
    1.1502   -2.7520    0.0000 C   0  0  0  0  0  4  0  0  0  0  0  0
    0.0000   -3.4138    0.0000 O   0  0  0  0  0  2  0  0  0  0  0  0
    1.2920   -1.4285    0.0000 O   0  0  0  0  0  2  0  0  0  0  0  0
    2.5945   -1.1502    0.0000 C   0  0  0  0  0  4  0  0  0  0  0  0
    3.2562    0.0000    0.0000 C   0  0  0  0  0  4  0  0  0  0  0  0
    4.5850    0.0000    0.0000 C   0  0  0  0  0  4  0  0  0  0  0  0
    5.2520   -1.1502    0.0000 O   0  0  0  0  0  2  0  0  0  0  0  0
  1  2  1  0  0  0  0 
  2  3  1  0  0  0  0 
  2 11  1  0  0  0  0 
  3  4  2  0  0  0  0 
  3  8  1  0  0  0  0 
  4  5  1  0  0  0  0 
  5  6  2  0  0  0  0 
  5  7  1  0  0  0  0 
  7  8  1  0  0  0  0 
  8  9  2  0  0  0  0 
  9 10  1  0  0  0  0 
 10 11  1  0  0  0  0 
M  END
> <CDK Fingerprint>
AMCEAQAAAAJADKCDQgAAAAAAABAABEAAoBJABMAABBAAACB4AIAAAAAAAAABAABYJBIAABAQEBAAAIAARAAAAAAQAAAEQAAgAAAAAFMgIDAQQEABAAIhQAAAMQAAABMQAABIZYAAAAAAAAAAEIAAIsEAoAAAcKgBRCAAEAAAADg=

> <ActivityOutcome_CPDBAS_Rat>
inactive

$$$$

  CDK     0721101958

 13 13  0  0  0  0  0  0  0  0999 V2000
    1.9920    0.0000    0.0000 Cl  0  0  0  0  0  1  0  0  0  0  0  0
    2.6560   -1.1545    0.0000 C   0  0  0  0  0  4  0  0  0  0  0  0
    3.9900   -1.1545    0.0000 C   0  0  0  0  0  4  0  0  0  0  0  0
    4.6540   -2.3031    0.0000 C   0  0  0  0  0  4  0  0  0  0  0  0
    3.9900   -3.4576    0.0000 C   0  0  0  0  0  4  0  0  0  0  0  0
    2.6560   -3.4576    0.0000 C   0  0  0  0  0  4  0  0  0  0  0  0
    1.9920   -2.3031    0.0000 C   0  0  0  0  0  4  0  0  0  0  0  0
    0.6640   -2.3031    0.0000 O   0  0  0  0  0  2  0  0  0  0  0  0
    0.0000   -3.4576    0.0000 C   0  0  0  0  0  4  0  0  0  0  0  0
    1.9920   -4.6062    0.0000 Cl  0  0  0  0  0  1  0  0  0  0  0  0
    4.6540   -4.6062    0.0000 Cl  0  0  0  0  0  1  0  0  0  0  0  0
    5.9820   -2.3031    0.0000 Cl  0  0  0  0  0  1  0  0  0  0  0  0
    4.6540    0.0000    0.0000 Cl  0  0  0  0  0  1  0  0  0  0  0  0
  1  2  1  0  0  0  0 
  2  3  2  0  0  0  0 
  2  7  1  0  0  0  0 
  3  4  1  0  0  0  0 
  3 13  1  0  0  0  0 
  4  5  2  0  0  0  0 
  4 12  1  0  0  0  0 
  5  6  1  0  0  0  0 
  5 11  1  0  0  0  0 
  6  7  2  0  0  0  0 
  6 10  1  0  0  0  0 
  7  8  1  0  0  0  0 
  8  9  1  0  0  0  0 
M  END
> <CDK Fingerprint>
GAAAAAAAAAAAAEoAAAAAAAAAAAAAAACAAAAAAAAAAAAAAuEAAAAAAAAAAAAAAAAgAAAgAAAAAGBAAAQAAAABAAIQAAAAAAAAAAAEAAAAoABMAAAAAAAACQEAAAAAAAAgAAAAgCIkIAAAAFIAAAAAAAAAAIAAAAAAAAAAACAAAA==

> <ActivityOutcome_CPDBAS_Rat>
active

> <TD50_Rat_mmol>
0.0885

$$$$

  CDK     0721101958

  7  6  0  0  0  0  0  0  0  0999 V2000
    2.6608   -1.9956    0.0000 Cl  0  0  0  0  0  1  0  0  0  0  0  0
    1.3304   -1.9956    0.0000 C   0  0  0  0  0  4  0  0  0  0  0  0
    1.3304   -0.6652    0.0000 C   0  0  0  0  0  4  0  0  0  0  0  0
    0.1796    0.0000    0.0000 Cl  0  0  0  0  0  1  0  0  0  0  0  0
    2.4812    0.0000    0.0000 Cl  0  0  0  0  0  1  0  0  0  0  0  0
    1.3304   -3.3260    0.0000 Cl  0  0  0  0  0  1  0  0  0  0  0  0
    0.0000   -1.9956    0.0000 Cl  0  0  0  0  0  1  0  0  0  0  0  0
  1  2  1  0  0  0  0 
  2  3  1  0  0  0  0 
  2  6  1  0  0  0  0 
  2  7  1  0  0  0  0 
  3  4  1  0  0  0  0 
  3  5  1  0  0  0  0 
M  END
> <CDK Fingerprint>
AMAAAAAAAAAAAAAAAAAgAAAABgAAAAAAAAAAAAABAAAABAAAAAAAAAAAAAAAAAAAAAAAAAAAAAAAAAAAAAAAAAAAAAAAAAAAAAAAAAAAAAAAAAAAAAAAAAAAAAAAAA==

> <ActivityOutcome_CPDBAS_Rat>
inactive

$$$$

  CDK     0721101958

 14 14  0  0  0  0  0  0  0  0999 V2000
    1.9924   -4.6070    0.0000 Cl  0  0  0  0  0  1  0  0  0  0  0  0
    2.6565   -3.4582    0.0000 C   0  0  0  0  0  4  0  0  0  0  0  0
    1.9924   -2.3035    0.0000 C   0  0  0  0  0  4  0  0  0  0  0  0
    2.6565   -1.1547    0.0000 C   0  0  0  0  0  4  0  0  0  0  0  0
    3.9907   -1.1547    0.0000 C   0  0  0  0  0  4  0  0  0  0  0  0
    4.6549   -2.3035    0.0000 C   0  0  0  0  0  4  0  0  0  0  0  0
    3.9907   -3.4582    0.0000 C   0  0  0  0  0  4  0  0  0  0  0  0
    4.6549   -4.6070    0.0000 Cl  0  0  0  0  0  1  0  0  0  0  0  0
    5.9831   -2.3035    0.0000 Cl  0  0  0  0  0  1  0  0  0  0  0  0
    4.6549    0.0000    0.0000 Cl  0  0  0  0  0  1  0  0  0  0  0  0
    1.9924    0.0000    0.0000 Cl  0  0  0  0  0  1  0  0  0  0  0  0
    0.6641   -2.3035    0.0000 N   0  0  0  0  0  4  0  0  0  0  0  0
    0.0000   -3.4582    0.0000 O   0  0  0  0  0  2  0  0  0  0  0  0
    0.0000   -1.1547    0.0000 O   0  0  0  0  0  1  0  0  0  0  0  0
  1  2  1  0  0  0  0 
  2  3  2  0  0  0  0 
  2  7  1  0  0  0  0 
  3  4  1  0  0  0  0 
  3 12  1  0  0  0  0 
  4  5  2  0  0  0  0 
  4 11  1  0  0  0  0 
  5  6  1  0  0  0  0 
  5 10  1  0  0  0  0 
  6  7  2  0  0  0  0 
  6  9  1  0  0  0  0 
  7  8  1  0  0  0  0 
 12 13  2  0  0  0  0 
 12 14  1  0  0  0  0 
M  CHG  1  12   1
M  CHG  1  14  -1
M  END
> <CDK Fingerprint>
CAAAEAIAACAAAEgAAAAAAAgAAAAAGEAAAAAAAAQABgAAAOAABAAAAAAAAAAgAAAgAAQAAgAAAEBEAAQAAAABAAAAAAAAAAAAgACAAASAABAMACAAAAAAAQEAAAAQAAAkAAQAgCAEAABAIFIAAAAAAAEAAIAAAAAAAAAAQAIQAA==

> <ActivityOutcome_CPDBAS_Rat>
inactive

$$$$

  CDK     0721101958

 12 12  0  0  0  0  0  0  0  0999 V2000
    0.0000   -2.3036    0.0000 O   0  0  0  0  0  2  0  0  0  0  0  0
    1.3300   -2.3036    0.0000 C   0  0  0  0  0  4  0  0  0  0  0  0
    1.9950   -1.1491    0.0000 C   0  0  0  0  0  4  0  0  0  0  0  0
    3.3250   -1.1491    0.0000 C   0  0  0  0  0  4  0  0  0  0  0  0
    3.9901   -2.3036    0.0000 C   0  0  0  0  0  4  0  0  0  0  0  0
    3.3250   -3.4581    0.0000 C   0  0  0  0  0  4  0  0  0  0  0  0
    1.9950   -3.4581    0.0000 C   0  0  0  0  0  4  0  0  0  0  0  0
    1.3300   -4.6072    0.0000 Cl  0  0  0  0  0  1  0  0  0  0  0  0
    3.9901   -4.6072    0.0000 Cl  0  0  0  0  0  1  0  0  0  0  0  0
    5.3201   -2.3036    0.0000 Cl  0  0  0  0  0  1  0  0  0  0  0  0
    3.9901    0.0000    0.0000 Cl  0  0  0  0  0  1  0  0  0  0  0  0
    1.3300    0.0000    0.0000 Cl  0  0  0  0  0  1  0  0  0  0  0  0
  1  2  1  0  0  0  0 
  2  3  2  0  0  0  0 
  2  7  1  0  0  0  0 
  3  4  1  0  0  0  0 
  3 12  1  0  0  0  0 
  4  5  2  0  0  0  0 
  4 11  1  0  0  0  0 
  5  6  1  0  0  0  0 
  5 10  1  0  0  0  0 
  6  7  2  0  0  0  0 
  6  9  1  0  0  0  0 
  7  8  1  0  0  0  0 
M  END
> <CDK Fingerprint>
GAAAAAAAAAAAAEoAAAAAAAAAAAAAAAAAAAAAAAAAAAAAAuEAAAAAAAAAAAAAAAAgAAAgAAAAAEBAAAQAAAABAAAAAAAAAAAAAAAAAAAAgAAMAAAAAAAAAQEAAAAAAAAgAAAAgCAkAAAAAFIAAAAAAAAAAIAAAAAAAAAAAAAAAA==

> <ActivityOutcome_CPDBAS_Rat>
active

> <TD50_Rat_mmol>
0.222

$$$$

  CDK     0721101958

 12 12  0  0  0  0  0  0  0  0999 V2000
    0.0000   -2.3036    0.0000 O   0  0  0  0  0  2  0  0  0  0  0  0
    1.3300   -2.3036    0.0000 C   0  0  0  0  0  4  0  0  0  0  0  0
    1.9950   -1.1491    0.0000 C   0  0  0  0  0  4  0  0  0  0  0  0
    3.3250   -1.1491    0.0000 C   0  0  0  0  0  4  0  0  0  0  0  0
    3.9901   -2.3036    0.0000 C   0  0  0  0  0  4  0  0  0  0  0  0
    3.3250   -3.4581    0.0000 C   0  0  0  0  0  4  0  0  0  0  0  0
    1.9950   -3.4581    0.0000 C   0  0  0  0  0  4  0  0  0  0  0  0
    1.3300   -4.6072    0.0000 Cl  0  0  0  0  0  1  0  0  0  0  0  0
    3.9901   -4.6072    0.0000 Cl  0  0  0  0  0  1  0  0  0  0  0  0
    5.3201   -2.3036    0.0000 Cl  0  0  0  0  0  1  0  0  0  0  0  0
    3.9901    0.0000    0.0000 Cl  0  0  0  0  0  1  0  0  0  0  0  0
    1.3300    0.0000    0.0000 Cl  0  0  0  0  0  1  0  0  0  0  0  0
  1  2  1  0  0  0  0 
  2  3  2  0  0  0  0 
  2  7  1  0  0  0  0 
  3  4  1  0  0  0  0 
  3 12  1  0  0  0  0 
  4  5  2  0  0  0  0 
  4 11  1  0  0  0  0 
  5  6  1  0  0  0  0 
  5 10  1  0  0  0  0 
  6  7  2  0  0  0  0 
  6  9  1  0  0  0  0 
  7  8  1  0  0  0  0 
M  END
> <CDK Fingerprint>
GAAAAAAAAAAAAEoAAAAAAAAAAAAAAAAAAAAAAAAAAAAAAuEAAAAAAAAAAAAAAAAgAAAgAAAAAEBAAAQAAAABAAAAAAAAAAAAAAAAAAAAgAAMAAAAAAAAAQEAAAAAAAAgAAAAgCAkAAAAAFIAAAAAAAAAAIAAAAAAAAAAAAAAAA==

> <ActivityOutcome_CPDBAS_Rat>
inactive

$$$$

  CDK     0721101958

 12 12  0  0  0  0  0  0  0  0999 V2000
    0.0000   -2.3036    0.0000 O   0  0  0  0  0  2  0  0  0  0  0  0
    1.3300   -2.3036    0.0000 C   0  0  0  0  0  4  0  0  0  0  0  0
    1.9950   -1.1491    0.0000 C   0  0  0  0  0  4  0  0  0  0  0  0
    3.3250   -1.1491    0.0000 C   0  0  0  0  0  4  0  0  0  0  0  0
    3.9901   -2.3036    0.0000 C   0  0  0  0  0  4  0  0  0  0  0  0
    3.3250   -3.4581    0.0000 C   0  0  0  0  0  4  0  0  0  0  0  0
    1.9950   -3.4581    0.0000 C   0  0  0  0  0  4  0  0  0  0  0  0
    1.3300   -4.6072    0.0000 Cl  0  0  0  0  0  1  0  0  0  0  0  0
    3.9901   -4.6072    0.0000 Cl  0  0  0  0  0  1  0  0  0  0  0  0
    5.3201   -2.3036    0.0000 Cl  0  0  0  0  0  1  0  0  0  0  0  0
    3.9901    0.0000    0.0000 Cl  0  0  0  0  0  1  0  0  0  0  0  0
    1.3300    0.0000    0.0000 Cl  0  0  0  0  0  1  0  0  0  0  0  0
  1  2  1  0  0  0  0 
  2  3  2  0  0  0  0 
  2  7  1  0  0  0  0 
  3  4  1  0  0  0  0 
  3 12  1  0  0  0  0 
  4  5  2  0  0  0  0 
  4 11  1  0  0  0  0 
  5  6  1  0  0  0  0 
  5 10  1  0  0  0  0 
  6  7  2  0  0  0  0 
  6  9  1  0  0  0  0 
  7  8  1  0  0  0  0 
M  END
> <CDK Fingerprint>
GAAAAAAAAAAAAEoAAAAAAAAAAAAAAAAAAAAAAAAAAAAAAuEAAAAAAAAAAAAAAAAgAAAgAAAAAEBAAAQAAAABAAAAAAAAAAAAAAAAAAAAgAAMAAAAAAAAAQEAAAAAAAAgAAAAgCAkAAAAAFIAAAAAAAAAAIAAAAAAAAAAAAAAAA==

> <ActivityOutcome_CPDBAS_Rat>
active

> <TD50_Rat_mmol>
0.0492

$$$$

  CDK     0721101958

 14 13  0  0  0  0  0  0  0  0999 V2000
    6.6514   -3.4587    0.0000 C   0  0  0  0  0  4  0  0  0  0  0  0
    5.9863   -4.6094    0.0000 C   0  0  0  0  0  4  0  0  0  0  0  0
    4.6560   -4.6094    0.0000 C   0  0  0  0  0  4  0  0  0  0  0  0
    3.9909   -5.7601    0.0000 C   0  0  0  0  0  4  0  0  0  0  0  0
    2.6606   -5.7601    0.0000 C   0  0  0  0  0  4  0  0  0  0  0  0
    1.9954   -4.6094    0.0000 N   0  0  0  0  0  3  0  0  0  0  0  0
    0.6651   -4.6094    0.0000 N   0  0  0  0  0  3  0  0  0  0  0  0
    0.0000   -3.4587    0.0000 O   0  0  0  0  0  2  0  0  0  0  0  0
    2.6606   -3.4587    0.0000 C   0  0  0  0  0  4  0  0  0  0  0  0
    3.9909   -3.4587    0.0000 N   0  0  0  0  0  3  0  0  0  0  0  0
    1.9954   -2.3014    0.0000 N   0  0  0  0  0  3  0  0  0  0  0  0
    2.6606   -1.1507    0.0000 N   0  0  0  0  0  4  0  0  0  0  0  0
    1.9954    0.0000    0.0000 O   0  0  0  0  0  1  0  0  0  0  0  0
    3.9909   -1.1507    0.0000 O   0  0  0  0  0  2  0  0  0  0  0  0
  1  2  1  0  0  0  0 
  2  3  1  0  0  0  0 
  3  4  1  0  0  0  0 
  4  5  1  0  0  0  0 
  5  6  1  0  0  0  0 
  6  7  1  0  0  0  0 
  6  9  1  0  0  0  0 
  7  8  2  0  0  0  0 
  9 10  2  0  0  0  0 
  9 11  1  0  0  0  0 
 11 12  1  0  0  0  0 
 12 13  1  0  0  0  0 
 12 14  2  0  0  0  0 
M  CHG  1  12   1
M  CHG  1  13  -1
M  END
> <CDK Fingerprint>
CABAAGIQAEgAAYAAAQABAACQAAAAgAAAIAAABAUhIGAAAAOACAAAAAAAgBBiAEFABkAAAAAAAEDAAAAAAAAAAAEAAEAAAAAAAAAAgAAIBAAgAEAAAAAAIgAAAAAAQBQgAAEACAAAACAAEAAAIAAAAAAAgAAAABAAAAMAAA==

> <ActivityOutcome_CPDBAS_Rat>
inactive

$$$$

  CDK     0721101958

 27 29  0  0  0  0  0  0  0  0999 V2000
    2.4664   -0.7059    0.0000 O   0  0  0  0  0  2  0  0  0  0  0  0
    1.5197   -3.8864    0.0000 O   0  0  0  0  0  2  0  0  0  0  0  0
    4.9659   -1.7937    0.0000 C   0  0  0  0  0  4  0  0  0  0  0  0
    3.7037   -1.0712    0.0000 C   0  0  0  0  0  4  0  0  0  0  0  0
    3.7037   -3.9694    0.0000 O   0  0  0  0  0  2  0  0  0  0  0  0
    2.4497   -1.7937    0.0000 C   0  0  0  0  0  4  0  0  0  0  0  0
    2.4497   -3.2470    0.0000 C   0  0  0  0  0  4  0  0  0  0  0  0
    7.4738   -1.7937    0.0000 C   0  0  0  0  0  4  0  0  0  0  0  0
    7.4738   -3.2470    0.0000 O   0  0  0  0  0  2  0  0  0  0  0  0
    6.2199   -1.0712    0.0000 C   0  0  0  0  0  4  0  0  0  0  0  0
    6.3943   -3.9694    0.0000 C   0  0  0  0  0  4  0  0  0  0  0  0
    2.7902   -6.0206    0.0000 C   0  0  0  0  0  4  0  0  0  0  0  0
    3.6539   -4.8580    0.0000 C   0  0  0  0  0  4  0  0  0  0  0  0
    3.6373   -7.1998    0.0000 C   0  0  0  0  0  4  0  0  0  0  0  0
    5.0324   -5.3147    0.0000 C   0  0  0  0  0  4  0  0  0  0  0  0
    5.0158   -6.7679    0.0000 N   0  0  0  0  0  3  0  0  0  0  0  0
    6.4109   -4.8746    0.0000 C   0  0  0  0  0  4  0  0  0  0  0  0
    7.2579   -6.0621    0.0000 C   0  0  0  0  0  4  0  0  0  0  0  0
    6.3943   -7.2247    0.0000 C   0  0  0  0  0  4  0  0  0  0  0  0
    5.0324   -4.3016    0.0000 O   0  0  0  0  0  2  0  0  0  0  0  0
    5.0158   -8.2544    0.0000 C   0  0  0  0  0  4  0  0  0  0  0  0
    8.3042   -1.3702    0.0000 O   0  0  0  0  0  2  0  0  0  0  0  0
    1.0879   -1.1875    0.0000 C   0  0  0  0  0  4  0  0  0  0  0  0
    0.0000   -1.7522    0.0000 C   0  0  0  0  0  4  0  0  0  0  0  0
    5.8545   -2.6241    0.0000 C   0  0  0  0  0  4  0  0  0  0  0  0
    7.1665   -0.2159    0.0000 C   0  0  0  0  0  4  0  0  0  0  0  0
    5.3147    0.0000    0.0000 O   0  0  0  0  0  2  0  0  0  0  0  0
  1  6  1  0  0  0  0 
  1 23  1  0  0  0  0 
  2  7  2  0  0  0  0 
  3  4  1  0  0  0  0 
  3 10  1  0  0  0  0 
  3 25  1  6  0  0  0 
  4  6  1  0  0  0  0 
  5  7  1  0  0  0  0 
 13  5  1  1  0  0  0 
  6  7  1  0  0  0  0 
  6 23  1  0  0  0  0 
  8  9  1  0  0  0  0 
  8 10  1  0  0  0  0 
  8 22  2  0  0  0  0 
  9 11  1  0  0  0  0 
 10 26  1  6  0  0  0 
 10 27  1  1  0  0  0 
 11 17  1  0  0  0  0 
 12 13  1  0  0  0  0 
 12 14  1  0  0  0  0 
 13 15  1  0  0  0  0 
 14 16  1  0  0  0  0 
 15 17  1  0  0  0  0 
 15 20  2  0  0  0  0 
 16 19  1  0  0  0  0 
 16 21  1  0  0  0  0 
 17 18  2  0  0  0  0 
 18 19  1  0  0  0  0 
 23 24  1  1  0  0  0 
M  END
> <CDK Fingerprint>
AtCQJQACAgFqAYGCFUMBQBC0YAIMBXEC4RIAAYMAACAXAYBgRIoEAgAgIAEBAADYbgYyAAXQEBJhAEAjwWAQQBACBAAMUgHAAEQAAVagUdgBAAgTIGBEQCAlMgAAAEIYgAhIRRABAAGBCoggYFAgA7UACCgE+HrACEpoRAYCACA=

> <ActivityOutcome_CPDBAS_Rat>
active

> <TD50_Rat_mmol>
0.00242

$$$$

  CDK     0721101958

 13 13  0  0  0  0  0  0  0  0999 V2000
    9.2089    0.0000    0.0000 C   0  0  0  0  0  4  0  0  0  0  0  0
    8.0578   -0.6630    0.0000 C   0  0  0  0  0  4  0  0  0  0  0  0
    8.0578   -1.9983    0.0000 O   0  0  0  0  0  2  0  0  0  0  0  0
    6.9067    0.0000    0.0000 N   0  0  0  0  0  3  0  0  0  0  0  0
    5.7556   -0.6630    0.0000 C   0  0  0  0  0  4  0  0  0  0  0  0
    5.7556   -1.9983    0.0000 C   0  0  0  0  0  4  0  0  0  0  0  0
    4.6044   -2.6614    0.0000 C   0  0  0  0  0  4  0  0  0  0  0  0
    3.4533   -1.9983    0.0000 C   0  0  0  0  0  4  0  0  0  0  0  0
    3.4533   -0.6630    0.0000 C   0  0  0  0  0  4  0  0  0  0  0  0
    4.6044    0.0000    0.0000 C   0  0  0  0  0  4  0  0  0  0  0  0
    2.3022   -2.6614    0.0000 O   0  0  0  0  0  2  0  0  0  0  0  0
    1.1511   -1.9983    0.0000 C   0  0  0  0  0  4  0  0  0  0  0  0
    0.0000   -2.6614    0.0000 C   0  0  0  0  0  4  0  0  0  0  0  0
  1  2  1  0  0  0  0 
  2  3  2  0  0  0  0 
  2  4  1  0  0  0  0 
  4  5  1  0  0  0  0 
  5  6  2  0  0  0  0 
  5 10  1  0  0  0  0 
  6  7  1  0  0  0  0 
  7  8  2  0  0  0  0 
  8  9  1  0  0  0  0 
  8 11  1  0  0  0  0 
  9 10  2  0  0  0  0 
 11 12  1  0  0  0  0 
 12 13  1  0  0  0  0 
M  END
> <CDK Fingerprint>
ICIAgAIAEAAEAAAAAAAAAECBAAAAAATAAggAAmEIAAAAAAAACAAAAIAgAgQgAIACAEAAAAiABAAAwAIQAAAAQQAAAAAEBIAAkAABAAAAAAAAAAAQAAAAAAAgAEAABCAgIAAAAAIAAAAAAAAAAIhQAEAAgBAAACIQAA==

> <ActivityOutcome_CPDBAS_Rat>
active

> <TD50_Rat_mmol>
6.97

$$$$

  CDK     0721101958

 14 15  0  0  0  0  0  0  0  0999 V2000
    4.8193   -4.5221    0.0000 C   0  0  0  0  0  4  0  0  0  0  0  0
    4.8917   -3.1959    0.0000 N   0  0  0  0  0  3  0  0  0  0  0  0
    3.8554   -2.3553    0.0000 N   0  0  0  0  0  3  0  0  0  0  0  0
    2.5727   -2.7031    0.0000 C   0  0  0  0  0  4  0  0  0  0  0  0
    2.2248   -3.9859    0.0000 C   0  0  0  0  0  4  0  0  0  0  0  0
    0.9421   -4.3265    0.0000 C   0  0  0  0  0  4  0  0  0  0  0  0
    0.0000   -3.3916    0.0000 C   0  0  0  0  0  4  0  0  0  0  0  0
    0.3479   -2.1016    0.0000 C   0  0  0  0  0  4  0  0  0  0  0  0
    1.6306   -1.7610    0.0000 C   0  0  0  0  0  4  0  0  0  0  0  0
    4.3337   -1.1160    0.0000 C   0  0  0  0  0  4  0  0  0  0  0  0
    3.6090    0.0000    0.0000 O   0  0  0  0  0  2  0  0  0  0  0  0
    5.6599   -1.1813    0.0000 C   0  0  0  0  0  4  0  0  0  0  0  0
    6.0078   -2.4712    0.0000 C   0  0  0  0  0  4  0  0  0  0  0  0
    7.2470   -2.9423    0.0000 C   0  0  0  0  0  4  0  0  0  0  0  0
  1  2  1  0  0  0  0 
  2  3  1  0  0  0  0 
  2 13  1  0  0  0  0 
  3  4  1  0  0  0  0 
  3 10  1  0  0  0  0 
  4  5  2  0  0  0  0 
  4  9  1  0  0  0  0 
  5  6  1  0  0  0  0 
  6  7  2  0  0  0  0 
  7  8  1  0  0  0  0 
  8  9  2  0  0  0  0 
 10 11  2  0  0  0  0 
 10 12  1  0  0  0  0 
 12 13  2  0  0  0  0 
 13 14  1  0  0  0  0 
M  END
> <CDK Fingerprint>
QEAACAgAACAiAAAEAACQQEACAICAIEBQASAQAgEEyEICAABkAAAAQAAAAAAAEASIIAAEAAAQEgBhAIAAgBUIAsACAAQBSCEAAAggAASAALBBAAJAAIAABAAAAAAAEgAAoQBAIAAjCAgAEgAGAAQAAAAAAACEdAhAAYIAAAADEAA=

> <ActivityOutcome_CPDBAS_Rat>
active

> <TD50_Rat_mmol>
6.53

$$$$

  CDK     0721101958

 44 48  0  0  0  0  0  0  0  0999 V2000
    9.3261   -4.6137    0.0000 O   0  0  0  0  0  2  0  0  0  0  0  0
    9.3508   -5.9460    0.0000 C   0  0  0  0  0  4  0  0  0  0  0  0
    8.2159   -6.6615    0.0000 C   0  0  0  0  0  4  0  0  0  0  0  0
    6.9823   -5.9707    0.0000 C   0  0  0  0  0  4  0  0  0  0  0  0
    5.8720   -6.7109    0.0000 C   0  0  0  0  0  4  0  0  0  0  0  0
    4.6877   -5.9460    0.0000 C   0  0  0  0  0  4  0  0  0  0  0  0
    4.6631   -4.7124    0.0000 C   0  0  0  0  0  4  0  0  0  0  0  0
    5.8227   -4.0216    0.0000 C   0  0  0  0  0  4  0  0  0  0  0  0
    7.0069   -4.6631    0.0000 C   0  0  0  0  0  4  0  0  0  0  0  0
    3.4788   -4.0709    0.0000 N   0  0  0  0  0  3  0  0  0  0  0  0
    3.4541   -2.7386    0.0000 C   0  0  0  0  0  4  0  0  0  0  0  0
    2.2699   -2.0971    0.0000 C   0  0  0  0  0  4  0  0  0  0  0  0
    2.2205   -0.7402    0.0000 Cl  0  0  0  0  0  1  0  0  0  0  0  0
    2.3439   -4.7864    0.0000 C   0  0  0  0  0  4  0  0  0  0  0  0
    1.1596   -4.1450    0.0000 C   0  0  0  0  0  4  0  0  0  0  0  0
    0.0000   -4.8358    0.0000 Cl  0  0  0  0  0  1  0  0  0  0  0  0
   17.3200   -2.6646    0.0000 C   0  0  0  0  0  4  0  0  0  0  0  0
   13.8165   -4.6631    0.0000 C   0  0  0  0  0  4  0  0  0  0  0  0
   13.8165   -6.0200    0.0000 C   0  0  0  0  0  4  0  0  0  0  0  0
   17.3200   -4.0216    0.0000 C   0  0  0  0  0  4  0  0  0  0  0  0
   14.9761   -3.9969    0.0000 C   0  0  0  0  0  4  0  0  0  0  0  0
   16.1604   -4.6631    0.0000 C   0  0  0  0  0  4  0  0  0  0  0  0
   18.6029   -2.2452    0.0000 C   0  0  0  0  0  4  0  0  0  0  0  0
   14.9761   -6.6862    0.0000 C   0  0  0  0  0  4  0  0  0  0  0  0
   16.1604   -2.0231    0.0000 C   0  0  0  0  0  4  0  0  0  0  0  0
   16.1604   -6.0200    0.0000 C   0  0  0  0  0  4  0  0  0  0  0  0
   14.9761   -2.6646    0.0000 C   0  0  0  0  0  4  0  0  0  0  0  0
   18.6029   -4.4410    0.0000 C   0  0  0  0  0  4  0  0  0  0  0  0
   12.6569   -3.9969    0.0000 C   0  0  0  0  0  4  0  0  0  0  0  0
   19.3431   -3.3308    0.0000 C   0  0  0  0  0  4  0  0  0  0  0  0
   12.6569   -6.6862    0.0000 C   0  0  0  0  0  4  0  0  0  0  0  0
   19.0470   -0.9869    0.0000 C   0  0  0  0  0  4  0  0  0  0  0  0
   17.3200   -1.4063    0.0000 C   0  0  0  0  0  4  0  0  0  0  0  0
   11.4973   -4.6631    0.0000 C   0  0  0  0  0  4  0  0  0  0  0  0
   11.4973   -6.0200    0.0000 C   0  0  0  0  0  4  0  0  0  0  0  0
   13.8165   -3.4048    0.0000 C   0  0  0  0  0  4  0  0  0  0  0  0
   10.5351   -6.5875    0.0000 O   0  0  0  0  0  2  0  0  0  0  0  0
   21.1442   -1.8011    0.0000 C   0  0  0  0  0  4  0  0  0  0  0  0
   20.3547   -0.7648    0.0000 C   0  0  0  0  0  4  0  0  0  0  0  0
   18.1835    0.0000    0.0000 C   0  0  0  0  0  4  0  0  0  0  0  0
   22.5012   -1.6037    0.0000 C   0  0  0  0  0  4  0  0  0  0  0  0
   23.3400   -2.6399    0.0000 C   0  0  0  0  0  4  0  0  0  0  0  0
   22.8466   -3.8736    0.0000 C   0  0  0  0  0  4  0  0  0  0  0  0
   24.6723   -2.4179    0.0000 C   0  0  0  0  0  4  0  0  0  0  0  0
  1  2  2  0  0  0  0 
  2  3  1  0  0  0  0 
  2 37  1  0  0  0  0 
  3  4  1  0  0  0  0 
  4  5  2  0  0  0  0 
  4  9  1  0  0  0  0 
  5  6  1  0  0  0  0 
  6  7  2  0  0  0  0 
  7  8  1  0  0  0  0 
  7 10  1  0  0  0  0 
  8  9  2  0  0  0  0 
 10 11  1  0  0  0  0 
 10 14  1  0  0  0  0 
 11 12  1  0  0  0  0 
 12 13  1  0  0  0  0 
 14 15  1  0  0  0  0 
 15 16  1  0  0  0  0 
 17 20  1  0  0  0  0 
 17 23  1  0  0  0  0 
 17 25  1  0  0  0  0 
 17 33  1  1  0  0  0 
 18 21  1  0  0  0  0 
 18 19  1  0  0  0  0 
 18 29  1  0  0  0  0 
 18 36  1  1  0  0  0 
 19 31  1  0  0  0  0 
 19 24  2  0  0  0  0 
 20 22  1  0  0  0  0 
 20 28  1  0  0  0  0 
 21 27  1  0  0  0  0 
 21 22  1  0  0  0  0 
 22 26  1  0  0  0  0 
 23 30  1  0  0  0  0 
 23 32  1  0  0  0  0 
 24 26  1  0  0  0  0 
 25 27  1  0  0  0  0 
 28 30  1  0  0  0  0 
 29 34  1  0  0  0  0 
 31 35  1  0  0  0  0 
 32 39  1  0  0  0  0 
 32 40  1  6  0  0  0 
 34 35  1  0  0  0  0 
 35 37  1  1  0  0  0 
 38 39  1  0  0  0  0 
 38 41  1  0  0  0  0 
 41 42  1  0  0  0  0 
 42 43  1  0  0  0  0 
 42 44  1  0  0  0  0 
M  END
> <CDK Fingerprint>
CMCQAAACAwAqAAACEwBEBBAgAgaIBEDFwQQAAIAFQAIIUQjgAIAAAAAEAAEgEEDQoAckQhIAEiBAAAAA0EQEAUAMDCgMBhSAGAwQQEKgFZIAAAARQAAAQADBEAAAAoAIIABIAUAgQAIgIABCQBAGAxAAFACE0BiAAIAQQCCCUCA=

> <ActivityOutcome_CPDBAS_Rat>
active

> <TD50_Rat_mmol>
0.000811

$$$$

  CDK     0721101958

 11 11  0  0  0  0  0  0  0  0999 V2000
    5.7578   -1.9999    0.0000 C   0  0  0  0  0  4  0  0  0  0  0  0
    4.6046   -2.6612    0.0000 C   0  0  0  0  0  4  0  0  0  0  0  0
    3.4595   -1.9999    0.0000 C   0  0  0  0  0  4  0  0  0  0  0  0
    2.3063   -2.6612    0.0000 N   0  0  0  0  0  3  0  0  0  0  0  0
    1.1532   -1.9999    0.0000 C   0  0  0  0  0  4  0  0  0  0  0  0
    0.0000   -1.3306    0.0000 S   0  0  0  0  0  2  0  0  0  0  0  0
    5.7578   -0.6693    0.0000 C   0  0  0  0  0  4  0  0  0  0  0  0
    6.9109    0.0000    0.0000 C   0  0  0  0  0  4  0  0  0  0  0  0
    8.0641   -0.6693    0.0000 C   0  0  0  0  0  4  0  0  0  0  0  0
    8.0641   -1.9999    0.0000 C   0  0  0  0  0  4  0  0  0  0  0  0
    6.9109   -2.6612    0.0000 C   0  0  0  0  0  4  0  0  0  0  0  0
  1  2  1  0  0  0  0 
  1  7  2  0  0  0  0 
  1 11  1  0  0  0  0 
  2  3  1  0  0  0  0 
  3  4  1  0  0  0  0 
  4  5  2  0  0  0  0 
  5  6  2  0  0  0  0 
  7  8  1  0  0  0  0 
  8  9  2  0  0  0  0 
  9 10  1  0  0  0  0 
 10 11  2  0  0  0  0 
M  END
> <CDK Fingerprint>
AIAAAAAAQIACAAAQAAEAAQAAAAAAAQAAAAAAAAAAAAAIAAFgAAAAAAAAAAAAAAAAIABAAAAJBARAAAAAQAAAAAAEDAAAAAAAAAACAAAAAAAAAAAAAAAAgACQAAAAAIQAIAAAAEAgEQAAAAACQAAGAAAAFACAAEAEAAAAAAACAAA=

> <ActivityOutcome_CPDBAS_Rat>
inactive

$$$$

  CDK     0721101958

 17 18  0  0  0  0  0  0  0  0999 V2000
    2.3044    0.0000    0.0000 O   0  0  0  0  0  2  0  0  0  0  0  0
    2.3044   -1.3295    0.0000 C   0  0  0  0  0  4  0  0  0  0  0  0
    3.4567   -1.9942    0.0000 C   0  0  0  0  0  4  0  0  0  0  0  0
    4.7640   -2.2232    0.0000 C   0  0  0  0  0  4  0  0  0  0  0  0
    5.6208   -1.2039    0.0000 C   0  0  0  0  0  4  0  0  0  0  0  0
    6.9281   -1.4329    0.0000 C   0  0  0  0  0  4  0  0  0  0  0  0
    7.3860   -2.6885    0.0000 C   0  0  0  0  0  4  0  0  0  0  0  0
    6.5292   -3.7078    0.0000 C   0  0  0  0  0  4  0  0  0  0  0  0
    5.2219   -3.4714    0.0000 C   0  0  0  0  0  4  0  0  0  0  0  0
    3.4567   -3.3237    0.0000 C   0  0  0  0  0  4  0  0  0  0  0  0
    4.6089   -3.9884    0.0000 O   0  0  0  0  0  2  0  0  0  0  0  0
    2.3044   -3.9884    0.0000 N   0  0  0  0  0  3  0  0  0  0  0  0
    1.1522   -3.3237    0.0000 C   0  0  0  0  0  4  0  0  0  0  0  0
    0.0000   -3.9884    0.0000 O   0  0  0  0  0  2  0  0  0  0  0  0
    1.1522   -1.9942    0.0000 N   0  0  0  0  0  3  0  0  0  0  0  0
    3.9146   -0.7460    0.0000 C   0  0  0  0  0  4  0  0  0  0  0  0
    5.2219   -0.5096    0.0000 C   0  0  0  0  0  4  0  0  0  0  0  0
  1  2  2  0  0  0  0 
  2  3  1  0  0  0  0 
  2 15  1  0  0  0  0 
  3  4  1  0  0  0  0 
  3 10  1  0  0  0  0 
  3 16  1  0  0  0  0 
  4  5  2  0  0  0  0 
  4  9  1  0  0  0  0 
  5  6  1  0  0  0  0 
  6  7  2  0  0  0  0 
  7  8  1  0  0  0  0 
  8  9  2  0  0  0  0 
 10 11  2  0  0  0  0 
 10 12  1  0  0  0  0 
 12 13  1  0  0  0  0 
 13 14  2  0  0  0  0 
 13 15  1  0  0  0  0 
 16 17  1  0  0  0  0 
M  END
> <CDK Fingerprint>
AKAAABAAgAIQBFACAQAAAAgACAAAAAAAAgAAAAAEAAgAAGAAACiAAAAgAAAAAUAgAEAAAgAAAEAACCLQAAAAgEYMIABAAUEEABIAAAAAgAAAwAAgAEAAgIIAAAAAgAAgAGAIQCQEAAAAAALAEAQBJABcAIBQAAQBAAEAKIIAAA==

> <ActivityOutcome_CPDBAS_Rat>
inactive

$$$$

  CDK     0721101958

  7  7  0  0  0  0  0  0  0  0999 V2000
    0.0000   -1.1496    0.0000 O   0  0  0  0  0  2  0  0  0  0  0  0
    1.3292   -1.1496    0.0000 C   0  0  0  0  0  4  0  0  0  0  0  0
    1.9958    0.0000    0.0000 C   0  0  0  0  0  4  0  0  0  0  0  0
    3.3250    0.0000    0.0000 C   0  0  0  0  0  4  0  0  0  0  0  0
    3.9916   -1.1496    0.0000 C   0  0  0  0  0  4  0  0  0  0  0  0
    3.3250   -2.3032    0.0000 C   0  0  0  0  0  4  0  0  0  0  0  0
    1.9958   -2.3032    0.0000 C   0  0  0  0  0  4  0  0  0  0  0  0
  1  2  1  0  0  0  0 
  2  3  2  0  0  0  0 
  2  7  1  0  0  0  0 
  3  4  1  0  0  0  0 
  4  5  2  0  0  0  0 
  5  6  1  0  0  0  0 
  6  7  2  0  0  0  0 
M  END
> <CDK Fingerprint>
AgAAAAAAAAAAAAAAAAAAAAAAAAAAAAACYQAAAAAAAAAAAAAAAAAAACAAAAAAQAAAAAAAAAAAAAAAAAAAAAAAAAAAAACAAAAAAAAAAAAAAAAAAAAAACAAAAAAICAAAAAAAgAAAAAAAAAAgAAAAAAAAAAAAAAA

> <ActivityOutcome_CPDBAS_Rat>
inactive

$$$$

  CDK     0721101958

 24 27  0  0  0  0  0  0  0  0999 V2000
    0.5369   -6.3722    0.0000 O   0  0  0  0  0  2  0  0  0  0  0  0
    1.4292   -5.3773    0.0000 C   0  0  0  0  0  4  0  0  0  0  0  0
    2.7479   -5.5194    0.0000 O   0  0  0  0  0  2  0  0  0  0  0  0
    3.2927   -4.3034    0.0000 C   0  0  0  0  0  4  0  0  0  0  0  0
    2.3057   -3.4191    0.0000 C   0  0  0  0  0  4  0  0  0  0  0  0
    1.1528   -4.0823    0.0000 C   0  0  0  0  0  4  0  0  0  0  0  0
    0.0000   -3.4191    0.0000 C   0  0  0  0  0  4  0  0  0  0  0  0
    0.0000   -2.0846    0.0000 C   0  0  0  0  0  4  0  0  0  0  0  0
    1.1528   -1.4213    0.0000 C   0  0  0  0  0  4  0  0  0  0  0  0
    2.3057   -2.0846    0.0000 C   0  0  0  0  0  4  0  0  0  0  0  0
    4.0744   -3.2295    0.0000 C   0  0  0  0  0  4  0  0  0  0  0  0
    3.5296   -2.0135    0.0000 C   0  0  0  0  0  4  0  0  0  0  0  0
    4.3113   -0.9396    0.0000 C   0  0  0  0  0  4  0  0  0  0  0  0
    5.6379   -1.0818    0.0000 C   0  0  0  0  0  4  0  0  0  0  0  0
    6.1748   -2.2899    0.0000 C   0  0  0  0  0  4  0  0  0  0  0  0
    5.3931   -3.3717    0.0000 C   0  0  0  0  0  4  0  0  0  0  0  0
    6.4196    0.0000    0.0000 O   0  0  0  0  0  2  0  0  0  0  0  0
    4.4456   -4.9667    0.0000 C   0  0  0  0  0  4  0  0  0  0  0  0
    5.5905   -4.3034    0.0000 C   0  0  0  0  0  4  0  0  0  0  0  0
    6.7433   -4.9667    0.0000 C   0  0  0  0  0  4  0  0  0  0  0  0
    6.7433   -6.3012    0.0000 C   0  0  0  0  0  4  0  0  0  0  0  0
    5.5905   -6.9644    0.0000 C   0  0  0  0  0  4  0  0  0  0  0  0
    4.4456   -6.3012    0.0000 C   0  0  0  0  0  4  0  0  0  0  0  0
    7.8962   -6.9644    0.0000 O   0  0  0  0  0  2  0  0  0  0  0  0
  1  2  2  0  0  0  0 
  2  3  1  0  0  0  0 
  2  6  1  0  0  0  0 
  3  4  1  0  0  0  0 
  4  5  1  0  0  0  0 
  4 11  1  0  0  0  0 
  4 18  1  0  0  0  0 
  5  6  2  0  0  0  0 
  5 10  1  0  0  0  0 
  6  7  1  0  0  0  0 
  7  8  2  0  0  0  0 
  8  9  1  0  0  0  0 
  9 10  2  0  0  0  0 
 11 12  2  0  0  0  0 
 11 16  1  0  0  0  0 
 12 13  1  0  0  0  0 
 13 14  2  0  0  0  0 
 14 15  1  0  0  0  0 
 14 17  1  0  0  0  0 
 15 16  2  0  0  0  0 
 18 19  2  0  0  0  0 
 18 23  1  0  0  0  0 
 19 20  1  0  0  0  0 
 20 21  2  0  0  0  0 
 21 22  1  0  0  0  0 
 21 24  1  0  0  0  0 
 22 23  2  0  0  0  0 
M  END
> <CDK Fingerprint>
AgAIAAAAAAAAA4ECAIAAABABAAAAAAAAgAAAAIAAAAAYAAJpAIADBAoAEAECABBAIAIEIAABgCBIAQAAQAAAAAAMCAAAAABAAAAAAAIAIIAYEgAAwACAAACAEEAAKICIIIBKAEAgJAAAAAAGQAgECCCQFACAUAhBSBEAIABAIAA=

> <ActivityOutcome_CPDBAS_Rat>
active

> <TD50_Rat_mmol>
2.83

$$$$

  CDK     0721101958

 11 11  0  0  0  0  0  0  0  0999 V2000
    0.0000   -2.3079    0.0000 C   0  0  0  0  0  4  0  0  0  0  0  0
    0.6651   -1.1573    0.0000 N   0  0  0  0  0  3  0  0  0  0  0  0
    0.0000    0.0000    0.0000 C   0  0  0  0  0  4  0  0  0  0  0  0
    1.9953   -1.1573    0.0000 N   0  0  0  0  0  3  0  0  0  0  0  0
    2.6605   -2.3079    0.0000 N   0  0  0  0  0  3  0  0  0  0  0  0
    3.9907   -2.3079    0.0000 C   0  0  0  0  0  4  0  0  0  0  0  0
    4.6558   -1.1573    0.0000 C   0  0  0  0  0  4  0  0  0  0  0  0
    5.9860   -1.1573    0.0000 C   0  0  0  0  0  4  0  0  0  0  0  0
    6.6511   -2.3079    0.0000 C   0  0  0  0  0  4  0  0  0  0  0  0
    5.9860   -3.4586    0.0000 C   0  0  0  0  0  4  0  0  0  0  0  0
    4.6558   -3.4586    0.0000 C   0  0  0  0  0  4  0  0  0  0  0  0
  1  2  1  0  0  0  0 
  2  3  1  0  0  0  0 
  2  4  1  0  0  0  0 
  4  5  2  0  0  0  0 
  5  6  1  0  0  0  0 
  6  7  2  0  0  0  0 
  6 11  1  0  0  0  0 
  7  8  1  0  0  0  0 
  8  9  2  0  0  0  0 
  9 10  1  0  0  0  0 
 10 11  2  0  0  0  0 
M  END
> <CDK Fingerprint>
AIJAAKAAAAAAAAAAAAAAAAgAAEAAAAAAAAQAAgAAAGAAAAAAAAAAAAAAAAAAAAAAAAAAAEAAAACAgAAQAgAAAgAAQCAgAAAAAAAAAAAAAAAAABAAACAAAAABAAIgAAAgACAAACAAAAJAAAAAAAAAAIAAAAAAAAAAAAMQAQ==

> <ActivityOutcome_CPDBAS_Rat>
active

> <TD50_Rat_mmol>
0.0155

$$$$

  CDK     0721101958

 13 14  0  0  0  0  0  0  0  0999 V2000
    3.6380    0.0000    0.0000 O   0  0  0  0  0  2  0  0  0  0  0  0
    2.9133   -1.1160    0.0000 C   0  0  0  0  0  4  0  0  0  0  0  0
    3.3916   -2.3625    0.0000 N   0  0  0  0  0  3  0  0  0  0  0  0
    4.6743   -2.7031    0.0000 C   0  0  0  0  0  4  0  0  0  0  0  0
    5.6164   -1.7610    0.0000 C   0  0  0  0  0  4  0  0  0  0  0  0
    6.8992   -2.1089    0.0000 C   0  0  0  0  0  4  0  0  0  0  0  0
    7.2470   -3.3916    0.0000 C   0  0  0  0  0  4  0  0  0  0  0  0
    6.3049   -4.3337    0.0000 C   0  0  0  0  0  4  0  0  0  0  0  0
    5.0222   -3.9859    0.0000 C   0  0  0  0  0  4  0  0  0  0  0  0
    2.3553   -3.1959    0.0000 N   0  0  0  0  0  3  0  0  0  0  0  0
    1.2392   -2.4712    0.0000 C   0  0  0  0  0  4  0  0  0  0  0  0
    1.5871   -1.1885    0.0000 C   0  0  0  0  0  4  0  0  0  0  0  0
    0.0000   -2.9495    0.0000 C   0  0  0  0  0  4  0  0  0  0  0  0
  1  2  2  0  0  0  0 
  2  3  1  0  0  0  0 
  2 12  1  0  0  0  0 
  3  4  1  0  0  0  0 
  3 10  1  0  0  0  0 
  4  5  2  0  0  0  0 
  4  9  1  0  0  0  0 
  5  6  1  0  0  0  0 
  6  7  2  0  0  0  0 
  7  8  1  0  0  0  0 
  8  9  2  0  0  0  0 
 10 11  2  0  0  0  0 
 11 12  1  0  0  0  0 
 11 13  1  0  0  0  0 
M  END
> <CDK Fingerprint>
AIAAAAgAAEAgIgAAAAAHgAhhAgGAgAAAYAEAgAAABMgCAAAAYAAAAAABAgAwAAAAkCAABAAABAIBQAAEIMAEgBLAQAAAIAABQAAAAAAUgACQQAAhQCAIQARAAAAAAAAgACEAQCQAIAAJAAAAChAQAAEAAAAAgFAAQACQIEACAxgA

> <ActivityOutcome_CPDBAS_Rat>
inactive

$$$$

  CDK     0721101958

 17 19  0  0  0  0  0  0  0  0999 V2000
    5.7546   -2.6609    0.0000 C   0  0  0  0  0  4  0  0  0  0  0  0
    6.9055   -1.9980    0.0000 C   0  0  0  0  0  4  0  0  0  0  0  0
    6.9055   -0.6629    0.0000 C   0  0  0  0  0  4  0  0  0  0  0  0
    5.7546    0.0000    0.0000 C   0  0  0  0  0  4  0  0  0  0  0  0
    4.6037   -0.6629    0.0000 C   0  0  0  0  0  4  0  0  0  0  0  0
    4.6037   -1.9980    0.0000 C   0  0  0  0  0  4  0  0  0  0  0  0
    3.4528   -2.6609    0.0000 N   0  0  0  0  0  3  0  0  0  0  0  0
    2.3018   -1.9980    0.0000 C   0  0  0  0  0  4  0  0  0  0  0  0
    1.1509   -2.6609    0.0000 C   0  0  0  0  0  4  0  0  0  0  0  0
    0.0000   -1.9980    0.0000 C   0  0  0  0  0  4  0  0  0  0  0  0
    0.0000   -0.6629    0.0000 C   0  0  0  0  0  4  0  0  0  0  0  0
    1.1509    0.0000    0.0000 C   0  0  0  0  0  4  0  0  0  0  0  0
    2.3018   -0.6629    0.0000 C   0  0  0  0  0  4  0  0  0  0  0  0
    8.0564    0.0000    0.0000 C   0  0  0  0  0  4  0  0  0  0  0  0
    9.2074   -0.6629    0.0000 C   0  0  0  0  0  4  0  0  0  0  0  0
    9.2074   -1.9980    0.0000 C   0  0  0  0  0  4  0  0  0  0  0  0
    8.0564   -2.6609    0.0000 C   0  0  0  0  0  4  0  0  0  0  0  0
  1  2  2  0  0  0  0 
  1  6  1  0  0  0  0 
  2  3  1  0  0  0  0 
  2 17  1  0  0  0  0 
  3  4  2  0  0  0  0 
  3 14  1  0  0  0  0 
  4  5  1  0  0  0  0 
  5  6  2  0  0  0  0 
  6  7  1  0  0  0  0 
  7  8  1  0  0  0  0 
  8  9  2  0  0  0  0 
  8 13  1  0  0  0  0 
  9 10  1  0  0  0  0 
 10 11  2  0  0  0  0 
 11 12  1  0  0  0  0 
 12 13  2  0  0  0  0 
 14 15  2  0  0  0  0 
 15 16  1  0  0  0  0 
 16 17  2  0  0  0  0 
M  END
> <CDK Fingerprint>
IAAAAAAAAAEAAAAAAAAAQAAAAAAABEACQAAAYAAAAAAAAAAAAAAAAAAABAAAAAYAQAAAAICEAABAAAAABCCAAAAAAAAAAAAACCAAABAAAAAAQAAAAAAAACABAAAAIAAAAAAAAgAAAAAAAAAAgAAAAEAAABBAAhAA

> <ActivityOutcome_CPDBAS_Rat>
inactive

$$$$

  CDK     0721101958

 17 17  0  0  0  0  0  0  0  0999 V2000
    1.9954   -4.6053    0.0000 C   0  0  0  0  0  4  0  0  0  0  0  0
    0.6625   -4.6053    0.0000 C   0  0  0  0  0  4  0  0  0  0  0  0
    0.0000   -3.4560    0.0000 C   0  0  0  0  0  4  0  0  0  0  0  0
    0.6625   -2.3066    0.0000 C   0  0  0  0  0  4  0  0  0  0  0  0
    1.9954   -2.3066    0.0000 C   0  0  0  0  0  4  0  0  0  0  0  0
    2.6578   -3.4560    0.0000 C   0  0  0  0  0  4  0  0  0  0  0  0
    3.9907   -3.4560    0.0000 C   0  0  0  0  0  4  0  0  0  0  0  0
    4.6532   -2.3066    0.0000 C   0  0  0  0  0  4  0  0  0  0  0  0
    5.9861   -2.3066    0.0000 O   0  0  0  0  0  2  0  0  0  0  0  0
    6.6486   -1.1493    0.0000 C   0  0  0  0  0  4  0  0  0  0  0  0
    7.9815   -1.1493    0.0000 N   0  0  0  0  0  3  0  0  0  0  0  0
    5.9861    0.0000    0.0000 O   0  0  0  0  0  2  0  0  0  0  0  0
    4.6532   -4.6053    0.0000 C   0  0  0  0  0  4  0  0  0  0  0  0
    5.9861   -4.6053    0.0000 O   0  0  0  0  0  2  0  0  0  0  0  0
    6.6486   -5.7626    0.0000 C   0  0  0  0  0  4  0  0  0  0  0  0
    7.9815   -5.7626    0.0000 N   0  0  0  0  0  3  0  0  0  0  0  0
    5.9861   -6.9120    0.0000 O   0  0  0  0  0  2  0  0  0  0  0  0
  1  2  2  0  0  0  0 
  1  6  1  0  0  0  0 
  2  3  1  0  0  0  0 
  3  4  2  0  0  0  0 
  4  5  1  0  0  0  0 
  5  6  2  0  0  0  0 
  6  7  1  0  0  0  0 
  7  8  1  0  0  0  0 
  7 13  1  0  0  0  0 
  8  9  1  0  0  0  0 
  9 10  1  0  0  0  0 
 10 11  1  0  0  0  0 
 10 12  2  0  0  0  0 
 13 14  1  0  0  0  0 
 14 15  1  0  0  0  0 
 15 16  1  0  0  0  0 
 15 17  2  0  0  0  0 
M  END
> <CDK Fingerprint>
CACAAIAAAAAAAAACAAAAAAAAEAAAAAAAgCQAAIAAAAAIAABgAAAAAAAAEgAIAABQIEYAABAAAABAAAAAQAAAAAAMCAAAAAAAAAAAAAAABAAAAAABAAAAQACAEQAAAoIAIABALEAgAAAAAEAKQAAEAgAAFACAQiAAAAAQAgASQAA=

> <ActivityOutcome_CPDBAS_Rat>
active

> <TD50_Rat_mmol>
4.58

$$$$

  CDK     0721101958

 21 22  0  0  0  0  0  0  0  0999 V2000
   10.3694   -2.6500    0.0000 C   0  0  0  0  0  4  0  0  0  0  0  0
    0.0000   -0.6798    0.0000 C   0  0  0  0  0  4  0  0  0  0  0  0
    1.1406    0.0000    0.0000 C   0  0  0  0  0  4  0  0  0  0  0  0
    2.2928   -0.6798    0.0000 C   0  0  0  0  0  4  0  0  0  0  0  0
    2.2928   -1.9932    0.0000 C   0  0  0  0  0  4  0  0  0  0  0  0
    1.1406   -2.6500    0.0000 C   0  0  0  0  0  4  0  0  0  0  0  0
    0.0000   -1.9932    0.0000 N   0  0  0  0  0  3  0  0  0  0  0  0
    3.4450   -2.6500    0.0000 C   0  0  0  0  0  4  0  0  0  0  0  0
    4.6086   -1.9932    0.0000 C   0  0  0  0  0  4  0  0  0  0  0  0
    5.7608   -2.6500    0.0000 C   0  0  0  0  0  4  0  0  0  0  0  0
    6.9130   -1.9932    0.0000 C   0  0  0  0  0  4  0  0  0  0  0  0
    8.0766   -2.6500    0.0000 C   0  0  0  0  0  4  0  0  0  0  0  0
    9.2288   -1.9932    0.0000 C   0  0  0  0  0  4  0  0  0  0  0  0
    3.4450   -3.9980    0.0000 C   0  0  0  0  0  4  0  0  0  0  0  0
    4.6086   -4.6547    0.0000 C   0  0  0  0  0  4  0  0  0  0  0  0
    4.6086   -6.0028    0.0000 C   0  0  0  0  0  4  0  0  0  0  0  0
    3.4450   -6.6480    0.0000 C   0  0  0  0  0  4  0  0  0  0  0  0
    2.2928   -6.0028    0.0000 C   0  0  0  0  0  4  0  0  0  0  0  0
    2.2928   -4.6547    0.0000 C   0  0  0  0  0  4  0  0  0  0  0  0
   11.5216   -1.9932    0.0000 O   0  0  0  0  0  2  0  0  0  0  0  0
   10.3694   -3.9980    0.0000 O   0  0  0  0  0  2  0  0  0  0  0  0
  1 13  1  0  0  0  0 
  1 20  1  0  0  0  0 
  1 21  2  0  0  0  0 
  2  7  1  0  0  0  0 
  2  3  2  0  0  0  0 
  3  4  1  0  0  0  0 
  4  5  2  0  0  0  0 
  5  8  1  0  0  0  0 
  5  6  1  0  0  0  0 
  6  7  2  0  0  0  0 
  8 14  1  0  0  0  0 
  8  9  2  0  0  0  0 
  9 10  1  0  0  0  0 
 10 11  1  0  0  0  0 
 11 12  1  0  0  0  0 
 12 13  1  0  0  0  0 
 14 15  2  0  0  0  0 
 14 19  1  0  0  0  0 
 15 16  1  0  0  0  0 
 16 17  2  0  0  0  0 
 17 18  1  0  0  0  0 
 18 19  2  0  0  0  0 
M  END
> <CDK Fingerprint>
QBAKMJECAQAAgQ4AgAAEEAEIAgAEIABAQAAwAAhIAAkBCGAAQBAEAEAAAAIABhghACoAAkEQAEABECBAQAQAESQIACQAIBAIAQAAAgAkAIiAAAAAAAgAAIAwAAhCgAAkAMAAQShIAgABEAJBEAwBCBAUAIDQGEEAAABgBBCgoA==

> <ActivityOutcome_CPDBAS_Rat>
inactive

$$$$

  CDK     0721101958

 10 10  0  0  0  0  0  0  0  0999 V2000
    0.0000   -2.6612    0.0000 N   0  0  0  0  0  3  0  0  0  0  0  0
    1.1520   -1.9988    0.0000 C   0  0  0  0  0  4  0  0  0  0  0  0
    1.1520   -0.6682    0.0000 S   0  0  0  0  0  2  0  0  0  0  0  0
    2.3041   -2.6612    0.0000 N   0  0  0  0  0  3  0  0  0  0  0  0
    3.4561   -1.9988    0.0000 C   0  0  0  0  0  4  0  0  0  0  0  0
    3.4561   -0.6682    0.0000 C   0  0  0  0  0  4  0  0  0  0  0  0
    4.6082    0.0000    0.0000 C   0  0  0  0  0  4  0  0  0  0  0  0
    5.7602   -0.6682    0.0000 C   0  0  0  0  0  4  0  0  0  0  0  0
    5.7602   -1.9988    0.0000 C   0  0  0  0  0  4  0  0  0  0  0  0
    4.6082   -2.6612    0.0000 C   0  0  0  0  0  4  0  0  0  0  0  0
  1  2  1  0  0  0  0 
  2  3  2  0  0  0  0 
  2  4  1  0  0  0  0 
  4  5  1  0  0  0  0 
  5  6  2  0  0  0  0 
  5 10  1  0  0  0  0 
  6  7  1  0  0  0  0 
  7  8  2  0  0  0  0 
  8  9  1  0  0  0  0 
  9 10  2  0  0  0  0 
M  END
> <CDK Fingerprint>
IBAARAAAAAAAAAAAAAAAQAAAAQAABEACAABBYAAAAAAAAAAAAAgBABAABAAAAAIAQAAAAMAEAABAAAAAAAIAAAAAAAAAAAAAgAAAAAAAAAAAEAAAAAAAACAAAAAAIAAAAAAAAgAACAAAAAIAgAAAAAAAAQAAAhAA

> <ActivityOutcome_CPDBAS_Rat>
inactive

$$$$

  CDK     0721101958

 19 21  0  0  0  0  0  0  0  0999 V2000
    4.6062    0.0000    0.0000 O   0  0  0  0  0  2  0  0  0  0  0  0
    3.4546   -0.6633    0.0000 C   0  0  0  0  0  4  0  0  0  0  0  0
    2.3031    0.0000    0.0000 C   0  0  0  0  0  4  0  0  0  0  0  0
    1.1515   -0.6633    0.0000 C   0  0  0  0  0  4  0  0  0  0  0  0
    1.1515   -1.9899    0.0000 C   0  0  0  0  0  4  0  0  0  0  0  0
    2.3031   -2.6532    0.0000 C   0  0  0  0  0  4  0  0  0  0  0  0
    3.4546   -1.9899    0.0000 C   0  0  0  0  0  4  0  0  0  0  0  0
    4.6062   -2.6532    0.0000 N   0  0  0  0  0  3  0  0  0  0  0  0
    5.7577   -1.9899    0.0000 N   0  0  0  0  0  3  0  0  0  0  0  0
    6.9093   -2.6532    0.0000 C   0  0  0  0  0  4  0  0  0  0  0  0
    8.0608   -1.9899    0.0000 C   0  0  0  0  0  4  0  0  0  0  0  0
    9.2124   -2.6532    0.0000 C   0  0  0  0  0  4  0  0  0  0  0  0
    9.2124   -3.9889    0.0000 C   0  0  0  0  0  4  0  0  0  0  0  0
    8.0608   -4.6522    0.0000 C   0  0  0  0  0  4  0  0  0  0  0  0
    6.9093   -3.9889    0.0000 C   0  0  0  0  0  4  0  0  0  0  0  0
    2.3031   -3.9889    0.0000 C   0  0  0  0  0  4  0  0  0  0  0  0
    1.1515   -4.6522    0.0000 C   0  0  0  0  0  4  0  0  0  0  0  0
    0.0000   -3.9889    0.0000 C   0  0  0  0  0  4  0  0  0  0  0  0
    0.0000   -2.6532    0.0000 C   0  0  0  0  0  4  0  0  0  0  0  0
  1  2  1  0  0  0  0 
  2  3  2  0  0  0  0 
  2  7  1  0  0  0  0 
  3  4  1  0  0  0  0 
  4  5  2  0  0  0  0 
  5  6  1  0  0  0  0 
  5 19  1  0  0  0  0 
  6  7  2  0  0  0  0 
  6 16  1  0  0  0  0 
  7  8  1  0  0  0  0 
  8  9  2  0  0  0  0 
  9 10  1  0  0  0  0 
 10 11  2  0  0  0  0 
 10 15  1  0  0  0  0 
 11 12  1  0  0  0  0 
 12 13  2  0  0  0  0 
 13 14  1  0  0  0  0 
 14 15  2  0  0  0  0 
 16 17  2  0  0  0  0 
 17 18  1  0  0  0  0 
 18 19  2  0  0  0  0 
M  END
> <CDK Fingerprint>
QAAAAAAAQAAgAAACCAAAAQIAAAABAABAAABACAAEAAIAAAJpEAAAAAAAAAAAAIAAAAAAIAAAAABCAAAACIAAEAAIAAIAAIAAoIAAAQAAAIAAAAAAAAAAAABgAAAAAAAAIAAAAAAgKAAgAAACAIAACABAAACAAAIAQAAQAAAjEAA=

> <ActivityOutcome_CPDBAS_Rat>
active

> <TD50_Rat_mmol>
0.118

$$$$

  CDK     0721101958

 23 25  0  0  0  0  0  0  0  0999 V2000
    3.4209   -7.1079    0.0000 O   0  0  0  0  0  2  0  0  0  0  0  0
    4.2097   -6.0342    0.0000 C   0  0  0  0  0  4  0  0  0  0  0  0
    3.7915   -4.7703    0.0000 N   0  0  0  0  0  3  0  0  0  0  0  0
    2.5277   -4.3522    0.0000 C   0  0  0  0  0  4  0  0  0  0  0  0
    1.5394   -5.2454    0.0000 C   0  0  0  0  0  4  0  0  0  0  0  0
    0.2756   -4.8368    0.0000 C   0  0  0  0  0  4  0  0  0  0  0  0
    0.0000   -3.5350    0.0000 C   0  0  0  0  0  4  0  0  0  0  0  0
    0.9883   -2.6417    0.0000 C   0  0  0  0  0  4  0  0  0  0  0  0
    2.2521   -3.0598    0.0000 C   0  0  0  0  0  4  0  0  0  0  0  0
    4.8748   -3.9816    0.0000 N   0  0  0  0  0  3  0  0  0  0  0  0
    4.8748   -2.6512    0.0000 C   0  0  0  0  0  4  0  0  0  0  0  0
    3.7155   -1.9955    0.0000 C   0  0  0  0  0  4  0  0  0  0  0  0
    3.7155   -0.6652    0.0000 C   0  0  0  0  0  4  0  0  0  0  0  0
    4.8748    0.0000    0.0000 C   0  0  0  0  0  4  0  0  0  0  0  0
    6.0247   -0.6652    0.0000 C   0  0  0  0  0  4  0  0  0  0  0  0
    6.0247   -1.9955    0.0000 C   0  0  0  0  0  4  0  0  0  0  0  0
    5.9486   -4.7703    0.0000 C   0  0  0  0  0  4  0  0  0  0  0  0
    7.2125   -4.3522    0.0000 O   0  0  0  0  0  2  0  0  0  0  0  0
    5.5305   -6.0342    0.0000 C   0  0  0  0  0  4  0  0  0  0  0  0
    6.3192   -7.1079    0.0000 C   0  0  0  0  0  4  0  0  0  0  0  0
    7.6401   -6.9654    0.0000 C   0  0  0  0  0  4  0  0  0  0  0  0
    8.1817   -5.7586    0.0000 C   0  0  0  0  0  4  0  0  0  0  0  0
    9.5026   -5.6160    0.0000 C   0  0  0  0  0  4  0  0  0  0  0  0
  1  2  2  0  0  0  0 
  2  3  1  0  0  0  0 
  2 19  1  0  0  0  0 
  3  4  1  0  0  0  0 
  3 10  1  0  0  0  0 
  4  5  2  0  0  0  0 
  4  9  1  0  0  0  0 
  5  6  1  0  0  0  0 
  6  7  2  0  0  0  0 
  7  8  1  0  0  0  0 
  8  9  2  0  0  0  0 
 10 11  1  0  0  0  0 
 10 17  1  0  0  0  0 
 11 12  2  0  0  0  0 
 11 16  1  0  0  0  0 
 12 13  1  0  0  0  0 
 13 14  2  0  0  0  0 
 14 15  1  0  0  0  0 
 15 16  2  0  0  0  0 
 17 18  2  0  0  0  0 
 17 19  1  0  0  0  0 
 19 20  1  0  0  0  0 
 20 21  1  0  0  0  0 
 21 22  1  0  0  0  0 
 22 23  1  0  0  0  0 
M  END
> <CDK Fingerprint>
AMCAAAgIAAAgIwAABCABgABAAACkgCACQEkAAAABBMhCAQEgYAAAEEAAAIAAAAAAkiAABCAEAAIAUADEIsIUAILAQBAAIAAhQAgAAAAEgACwQAAhICAAVgQAAIAAAAAAAGFAwCwAIwAIABAIJgAYAAGEQAAAgFAAQgiAACAECxgA

> <ActivityOutcome_CPDBAS_Rat>
active

> <TD50_Rat_mmol>
3.76

$$$$

  CDK     0721101958

  8  8  0  0  0  0  0  0  0  0999 V2000
    0.0000   -1.1545    0.0000 N   0  0  0  0  0  3  0  0  0  0  0  0
    1.3300   -1.1545    0.0000 C   0  0  0  0  0  4  0  0  0  0  0  0
    1.9950    0.0000    0.0000 C   0  0  0  0  0  4  0  0  0  0  0  0
    3.3250    0.0000    0.0000 C   0  0  0  0  0  4  0  0  0  0  0  0
    3.9900   -1.1545    0.0000 C   0  0  0  0  0  4  0  0  0  0  0  0
    3.3250   -2.3036    0.0000 C   0  0  0  0  0  4  0  0  0  0  0  0
    1.9950   -2.3036    0.0000 C   0  0  0  0  0  4  0  0  0  0  0  0
    5.3201   -1.1545    0.0000 N   0  0  0  0  0  3  0  0  0  0  0  0
  1  2  1  0  0  0  0 
  2  3  2  0  0  0  0 
  2  7  1  0  0  0  0 
  3  4  1  0  0  0  0 
  4  5  2  0  0  0  0 
  5  6  1  0  0  0  0 
  5  8  1  0  0  0  0 
  6  7  2  0  0  0  0 
M  END
> <CDK Fingerprint>
IAAAAAAAAAAAAAAAAAAAQBAAAAAABAACAAAAYAAAAAAAAAAAAAAAAAAAAAAAAAAAQAAAAAAAAAAAAAAAAAAAAAAAAAAAAAAAAAAAAAAAAAAAAAAAAAAAACAAAAAAIAAAAAAAAgAAAAAAAAAAgAAAAAAAAAAAAhAA

> <ActivityOutcome_CPDBAS_Rat>
inactive

$$$$

  CDK     0721101958

 22 23  0  0  0  0  0  0  0  0999 V2000
    0.0000   -8.0521    0.0000 O   0  0  0  0  0  2  0  0  0  0  0  0
    1.9889   -2.3029    0.0000 C   0  0  0  0  0  4  0  0  0  0  0  0
    0.6603   -2.3029    0.0000 C   0  0  0  0  0  4  0  0  0  0  0  0
    2.6572   -1.1434    0.0000 C   0  0  0  0  0  4  0  0  0  0  0  0
    0.0000   -1.1434    0.0000 C   0  0  0  0  0  4  0  0  0  0  0  0
    1.9889    0.0000    0.0000 C   0  0  0  0  0  4  0  0  0  0  0  0
    0.6603    0.0000    0.0000 C   0  0  0  0  0  4  0  0  0  0  0  0
    0.0000   -3.4544    0.0000 C   0  0  0  0  0  4  0  0  0  0  0  0
    0.6603   -4.5978    0.0000 C   0  0  0  0  0  4  0  0  0  0  0  0
    0.0000   -5.7492    0.0000 O   0  0  0  0  0  2  0  0  0  0  0  0
    0.6603   -6.9087    0.0000 C   0  0  0  0  0  4  0  0  0  0  0  0
    1.9889   -6.9087    0.0000 C   0  0  0  0  0  4  0  0  0  0  0  0
    2.6572   -5.7492    0.0000 C   0  0  0  0  0  4  0  0  0  0  0  0
    5.9827   -4.5978    0.0000 C   0  0  0  0  0  4  0  0  0  0  0  0
    6.6430   -5.7492    0.0000 C   0  0  0  0  0  4  0  0  0  0  0  0
    4.6461   -4.5978    0.0000 C   0  0  0  0  0  4  0  0  0  0  0  0
    5.9827   -6.9087    0.0000 C   0  0  0  0  0  4  0  0  0  0  0  0
    3.9858   -5.7492    0.0000 C   0  0  0  0  0  4  0  0  0  0  0  0
    4.6461   -6.9087    0.0000 C   0  0  0  0  0  4  0  0  0  0  0  0
    6.6430   -8.0521    0.0000 O   0  0  0  0  0  2  0  0  0  0  0  0
    7.9796   -8.0521    0.0000 C   0  0  0  0  0  4  0  0  0  0  0  0
    7.9796   -5.7492    0.0000 O   0  0  0  0  0  2  0  0  0  0  0  0
  1 11  2  0  0  0  0 
  2  3  1  0  0  0  0 
  2  4  2  0  0  0  0 
  3  5  2  0  0  0  0 
  3  8  1  0  0  0  0 
  4  6  1  0  0  0  0 
  5  7  1  0  0  0  0 
  6  7  2  0  0  0  0 
  8  9  1  0  0  0  0 
  9 10  1  0  0  0  0 
 10 11  1  0  0  0  0 
 11 12  1  0  0  0  0 
 12 13  2  0  0  0  0 
 13 18  1  0  0  0  0 
 14 15  1  0  0  0  0 
 14 16  2  0  0  0  0 
 15 17  2  0  0  0  0 
 15 22  1  0  0  0  0 
 16 18  1  0  0  0  0 
 17 19  1  0  0  0  0 
 17 20  1  0  0  0  0 
 18 19  2  0  0  0  0 
 20 21  1  0  0  0  0 
M  END
> <CDK Fingerprint>
CNCAARAAAIIACRACAAAAABIAAAAIACBAoDQEAIAKAAAqAAJhBMQAgIBACAAAAMBQIAYAIBAQEABAAAAAwAAEAABOmAAARAgSgAECBAAQBIAgEAAIAAAIQACAMAAAAoAAIIBAKEAgICJEEJAKQgAMAAEAFACAcAgAAAAQAAAgUAA=

> <ActivityOutcome_CPDBAS_Rat>
inactive

$$$$

  CDK     0721101958

 11 12  0  0  0  0  0  0  0  0999 V2000
    3.9880   -1.1486    0.0000 O   0  0  0  0  0  2  0  0  0  0  0  0
    2.6611   -1.1486    0.0000 C   0  0  0  0  0  4  0  0  0  0  0  0
    1.9976   -2.3043    0.0000 C   0  0  0  0  0  4  0  0  0  0  0  0
    0.6635   -2.3043    0.0000 C   0  0  0  0  0  4  0  0  0  0  0  0
    0.0000   -1.1486    0.0000 C   0  0  0  0  0  4  0  0  0  0  0  0
    0.6635    0.0000    0.0000 C   0  0  0  0  0  4  0  0  0  0  0  0
    1.9976    0.0000    0.0000 C   0  0  0  0  0  4  0  0  0  0  0  0
    4.6515   -2.3043    0.0000 C   0  0  0  0  0  4  0  0  0  0  0  0
    5.9856   -2.3043    0.0000 C   0  0  0  0  0  4  0  0  0  0  0  0
    7.1342   -1.6409    0.0000 C   0  0  0  0  0  4  0  0  0  0  0  0
    7.1342   -2.9678    0.0000 O   0  0  0  0  0  2  0  0  0  0  0  0
  1  2  1  0  0  0  0 
  1  8  1  0  0  0  0 
  2  3  2  0  0  0  0 
  2  7  1  0  0  0  0 
  3  4  1  0  0  0  0 
  4  5  2  0  0  0  0 
  5  6  1  0  0  0  0 
  6  7  2  0  0  0  0 
  8  9  1  0  0  0  0 
  9 10  1  0  0  0  0 
  9 11  1  0  0  0  0 
 10 11  1  0  0  0  0 
M  END
> <CDK Fingerprint>
BAAAAAAAAAAAAAACABAABAAAAAAAAAAAgAAAAQAAAAAACAJhAAAAAAAAAAgAAAAYIAIQIACAAABAAAQIQAAAAAACEAAAAABAAQAgBCAAAIAAAAAAAAAAQIAAEAAIAEIAIAAAAAAgICAAAAACAAAAAAAAAACAACAAAAAAAAAiAAA=

> <ActivityOutcome_CPDBAS_Rat>
active

> <TD50_Rat_mmol>
0.293

$$$$

  CDK     0721101958

 15 15  0  0  0  0  0  0  0  0999 V2000
    3.4621   -2.0037    0.0000 C   0  0  0  0  0  4  0  0  0  0  0  0
    4.6161   -2.6631    0.0000 C   0  0  0  0  0  4  0  0  0  0  0  0
    5.7701   -2.0037    0.0000 C   0  0  0  0  0  4  0  0  0  0  0  0
    6.9114   -2.6631    0.0000 C   0  0  0  0  0  4  0  0  0  0  0  0
    8.0655   -2.0037    0.0000 C   0  0  0  0  0  4  0  0  0  0  0  0
    9.2195   -2.6631    0.0000 C   0  0  0  0  0  4  0  0  0  0  0  0
   10.3735   -2.0037    0.0000 C   0  0  0  0  0  4  0  0  0  0  0  0
   10.3735   -0.6721    0.0000 C   0  0  0  0  0  4  0  0  0  0  0  0
   11.5275    0.0000    0.0000 C   0  0  0  0  0  4  0  0  0  0  0  0
   12.6815   -0.6721    0.0000 C   0  0  0  0  0  4  0  0  0  0  0  0
   12.6815   -2.0037    0.0000 C   0  0  0  0  0  4  0  0  0  0  0  0
   11.5275   -2.6631    0.0000 C   0  0  0  0  0  4  0  0  0  0  0  0
    2.3080   -2.6631    0.0000 N   0  0  0  0  0  3  0  0  0  0  0  0
    1.1540   -2.0037    0.0000 C   0  0  0  0  0  4  0  0  0  0  0  0
    0.0000   -1.3316    0.0000 S   0  0  0  0  0  2  0  0  0  0  0  0
  1  2  1  0  0  0  0 
  1 13  1  0  0  0  0 
  2  3  1  0  0  0  0 
  3  4  1  0  0  0  0 
  4  5  1  0  0  0  0 
  5  6  1  0  0  0  0 
  6  7  1  0  0  0  0 
  7  8  2  0  0  0  0 
  7 12  1  0  0  0  0 
  8  9  1  0  0  0  0 
  9 10  2  0  0  0  0 
 10 11  1  0  0  0  0 
 11 12  2  0  0  0  0 
 13 14  2  0  0  0  0 
 14 15  2  0  0  0  0 
M  END
> <CDK Fingerprint>
AIAAIAAAQAACRAAQAAEEAAAIAgAAAAAAQAAAAAAAAAAIAQFgAAAAAAAAAAAAAAAAIAAAAYAABARAAAAAQAAAAAAECAAAAABABAAIAGIAAQIAAAAAAAAgAAiQEAAAAIgAIAAAAEAhEQAAIAgCQBAGAAAAHACAAEAEAAAAAAACAAA=

> <ActivityOutcome_CPDBAS_Rat>
inactive

$$$$

  CDK     0721101958

 13 14  0  0  0  0  0  0  0  0999 V2000
    2.6607    0.0000    0.0000 O   0  0  0  0  0  2  0  0  0  0  0  0
    1.9955   -1.1574    0.0000 C   0  0  0  0  0  4  0  0  0  0  0  0
    2.6607   -2.3082    0.0000 C   0  0  0  0  0  4  0  0  0  0  0  0
    1.9955   -3.4589    0.0000 C   0  0  0  0  0  4  0  0  0  0  0  0
    0.6652   -3.4589    0.0000 C   0  0  0  0  0  4  0  0  0  0  0  0
    0.0000   -2.3082    0.0000 C   0  0  0  0  0  4  0  0  0  0  0  0
    0.6652   -1.1574    0.0000 C   0  0  0  0  0  4  0  0  0  0  0  0
    3.9910   -2.3082    0.0000 C   0  0  0  0  0  4  0  0  0  0  0  0
    4.6562   -1.1574    0.0000 C   0  0  0  0  0  4  0  0  0  0  0  0
    5.9866   -1.1574    0.0000 C   0  0  0  0  0  4  0  0  0  0  0  0
    6.6517   -2.3082    0.0000 C   0  0  0  0  0  4  0  0  0  0  0  0
    5.9866   -3.4589    0.0000 C   0  0  0  0  0  4  0  0  0  0  0  0
    4.6562   -3.4589    0.0000 C   0  0  0  0  0  4  0  0  0  0  0  0
  1  2  1  0  0  0  0 
  2  3  2  0  0  0  0 
  2  7  1  0  0  0  0 
  3  4  1  0  0  0  0 
  3  8  1  0  0  0  0 
  4  5  2  0  0  0  0 
  5  6  1  0  0  0  0 
  6  7  2  0  0  0  0 
  8  9  2  0  0  0  0 
  8 13  1  0  0  0  0 
  9 10  1  0  0  0  0 
 10 11  2  0  0  0  0 
 11 12  1  0  0  0  0 
 12 13  2  0  0  0  0 
M  END
> <CDK Fingerprint>
QAAAAAQAAgAAAAAAAAAAAAAAAAAAAAACAAAABCACYQAAAAAAAAAAAAAAACAAACAAAAQAQAAAAAAAAAAABgAAAAAACQAAAAAgAADAAAAAAAAAAAAAgAAAAAKAACAAAABAICAAAABAAkABAAAAAAAIgIAAABAICAAAAAAA

> <ActivityOutcome_CPDBAS_Rat>
active

> <TD50_Rat_mmol>
1.36

$$$$

  CDK     0721101958

 12 12  0  0  0  0  0  0  0  0999 V2000
    8.0579   -0.6815    0.0000 C   0  0  0  0  0  4  0  0  0  0  0  0
    6.9068   -1.3537    0.0000 N   0  0  0  0  0  3  0  0  0  0  0  0
    9.2090    0.0000    0.0000 S   0  0  0  0  0  2  0  0  0  0  0  0
    5.7464   -0.6907    0.0000 C   0  0  0  0  0  4  0  0  0  0  0  0
    4.6045   -1.3629    0.0000 C   0  0  0  0  0  4  0  0  0  0  0  0
    3.4626   -0.7091    0.0000 C   0  0  0  0  0  4  0  0  0  0  0  0
    1.1603   -3.3797    0.0000 C   0  0  0  0  0  4  0  0  0  0  0  0
    0.0092   -2.7351    0.0000 C   0  0  0  0  0  4  0  0  0  0  0  0
    0.0000   -1.3998    0.0000 C   0  0  0  0  0  4  0  0  0  0  0  0
    1.1511   -0.7275    0.0000 C   0  0  0  0  0  4  0  0  0  0  0  0
    2.3115   -1.3906    0.0000 C   0  0  0  0  0  4  0  0  0  0  0  0
    2.3115   -2.7075    0.0000 C   0  0  0  0  0  4  0  0  0  0  0  0
  1  2  2  0  0  0  0 
  1  3  2  0  0  0  0 
  2  4  1  0  0  0  0 
  4  5  1  0  0  0  0 
  5  6  1  0  0  0  0 
  6 11  1  0  0  0  0 
  7 12  2  0  0  0  0 
  7  8  1  0  0  0  0 
  8  9  2  0  0  0  0 
  9 10  1  0  0  0  0 
 10 11  2  0  0  0  0 
 11 12  1  0  0  0  0 
M  END
> <CDK Fingerprint>
AIAAAAAAQAACAAAQgAEEAACIAAAAAACAAAAAAAAAAAAIAAFgAAAAAAAAAgAAAAAAIAAAAAAABARAAAABQAAAIAAECAAAAABABAAAAAAAAAIAAAAAAAAAAACQAAAAAIAAIAGAAEAgEQAAAAACQBAGAAAAHECAAEAEAAAAAAACAAA=

> <ActivityOutcome_CPDBAS_Rat>
inactive

$$$$

  CDK     0721101958

 12 12  0  0  0  0  0  0  0  0999 V2000
    0.0000   -2.3041    0.0000 N   0  0  0  0  0  3  0  0  0  0  0  0
    0.6656   -3.4585    0.0000 C   0  0  0  0  0  4  0  0  0  0  0  0
    0.0000   -4.6082    0.0000 O   0  0  0  0  0  2  0  0  0  0  0  0
    1.9969   -3.4585    0.0000 C   0  0  0  0  0  4  0  0  0  0  0  0
    2.6579   -2.3041    0.0000 C   0  0  0  0  0  4  0  0  0  0  0  0
    3.9891   -2.3041    0.0000 C   0  0  0  0  0  4  0  0  0  0  0  0
    4.6548   -3.4585    0.0000 C   0  0  0  0  0  4  0  0  0  0  0  0
    3.9891   -4.6082    0.0000 C   0  0  0  0  0  4  0  0  0  0  0  0
    2.6579   -4.6082    0.0000 C   0  0  0  0  0  4  0  0  0  0  0  0
    1.9969   -1.1544    0.0000 C   0  0  0  0  0  4  0  0  0  0  0  0
    0.6656   -1.1544    0.0000 O   0  0  0  0  0  2  0  0  0  0  0  0
    2.6579    0.0000    0.0000 N   0  0  0  0  0  3  0  0  0  0  0  0
  1  2  1  0  0  0  0 
  2  3  2  0  0  0  0 
  2  4  1  0  0  0  0 
  4  5  2  0  0  0  0 
  4  9  1  0  0  0  0 
  5  6  1  0  0  0  0 
  5 10  1  0  0  0  0 
  6  7  2  0  0  0  0 
  7  8  1  0  0  0  0 
  8  9  2  0  0  0  0 
 10 11  2  0  0  0  0 
 10 12  1  0  0  0  0 
M  END
> <CDK Fingerprint>
QgCAAAAAAAAAIAAAAAAAAAAAIAAAAAAkEAIAaAAAAAQAAAAAAAAAACAAAAAAAIAAQAAAEAAAAAAABAAAAAAAAAAAAAAAAAAAAAAAAAAAgAAAgAAAAAiAACAAQABAIAABAAAAAkAAAABAAAAAgFAIQAgAAAAAAgAA

> <ActivityOutcome_CPDBAS_Rat>
inactive

$$$$

  CDK     0721101958

 11 12  0  0  0  0  0  0  0  0999 V2000
    4.5940   -2.6089    0.0000 O   0  0  0  0  0  2  0  0  0  0  0  0
    3.2920   -2.8861    0.0000 C   0  0  0  0  0  4  0  0  0  0  0  0
    2.3020   -1.9950    0.0000 C   0  0  0  0  0  4  0  0  0  0  0  0
    1.1535   -2.6584    0.0000 C   0  0  0  0  0  4  0  0  0  0  0  0
    0.0000   -1.9950    0.0000 C   0  0  0  0  0  4  0  0  0  0  0  0
    0.0000   -0.6634    0.0000 C   0  0  0  0  0  4  0  0  0  0  0  0
    1.1535    0.0000    0.0000 C   0  0  0  0  0  4  0  0  0  0  0  0
    2.3020   -0.6634    0.0000 C   0  0  0  0  0  4  0  0  0  0  0  0
    1.4307   -3.9603    0.0000 C   0  0  0  0  0  4  0  0  0  0  0  0
    0.5396   -4.9504    0.0000 O   0  0  0  0  0  2  0  0  0  0  0  0
    2.7524   -4.0990    0.0000 O   0  0  0  0  0  2  0  0  0  0  0  0
  1  2  2  0  0  0  0 
  2  3  1  0  0  0  0 
  2 11  1  0  0  0  0 
  3  4  2  0  0  0  0 
  3  8  1  0  0  0  0 
  4  5  1  0  0  0  0 
  4  9  1  0  0  0  0 
  5  6  2  0  0  0  0 
  6  7  1  0  0  0  0 
  7  8  2  0  0  0  0 
  9 10  2  0  0  0  0 
  9 11  1  0  0  0  0 
M  END
> <CDK Fingerprint>
AgAIAAAAAAAAAoACAAAAAAABAAAAAAAAgAAAAIAAAAAQAABoAIAABAgAAAAAABBAIAIAAAAAgCBAAAAQAAAAAAAMAAAAAAAAAAAAAAIAAAAQAgAAAACAAACAEEAAKICAIIBAAEAgBAAAAAACQAgACACAAACAUAhASBEAIAAAIAA=

> <ActivityOutcome_CPDBAS_Rat>
inactive

$$$$

  CDK     0721101958

 13 13  0  0  0  0  0  0  0  0999 V2000
    3.4803   -1.9978    0.0000 C   0  0  0  0  0  4  0  0  0  0  0  0
    2.3395   -1.3493    0.0000 N   0  0  0  0  0  3  0  0  0  0  0  0
    3.4803   -3.3297    0.0000 C   0  0  0  0  0  4  0  0  0  0  0  0
    1.1813   -3.3297    0.0000 C   0  0  0  0  0  4  0  0  0  0  0  0
    2.3395   -3.9783    0.0000 C   0  0  0  0  0  4  0  0  0  0  0  0
    1.1813   -1.9978    0.0000 C   0  0  0  0  0  4  0  0  0  0  0  0
    4.6327   -1.3377    0.0000 C   0  0  0  0  0  4  0  0  0  0  0  0
    4.6327    0.0000    0.0000 O   0  0  0  0  0  2  0  0  0  0  0  0
    2.3395   -5.3102    0.0000 N   0  0  0  0  0  3  0  0  0  0  0  0
    0.0116   -3.9899    0.0000 Cl  0  0  0  0  0  1  0  0  0  0  0  0
    4.6327   -4.0015    0.0000 Cl  0  0  0  0  0  1  0  0  0  0  0  0
    0.0000   -1.3493    0.0000 Cl  0  0  0  0  0  1  0  0  0  0  0  0
    5.7908   -1.9805    0.0000 O   0  0  0  0  0  2  0  0  0  0  0  0
  1  2  1  0  0  0  0 
  1  3  2  0  0  0  0 
  1  7  1  0  0  0  0 
  2  6  2  0  0  0  0 
  3  5  1  0  0  0  0 
  3 11  1  0  0  0  0 
  4  5  2  0  0  0  0 
  4 10  1  0  0  0  0 
  4  6  1  0  0  0  0 
  5  9  1  0  0  0  0 
  6 12  1  0  0  0  0 
  7  8  2  0  0  0  0 
  7 13  1  0  0  0  0 
M  END
> <CDK Fingerprint>
QEgAAgCQAiFgAIBeAACgAQAAAAgAAAAAAAACAAAFDAAAIADoAAAABIQAAAAAAAAIIgAAAAgAADBoAAAAAAFBiQNABAIEQEQQAAABAABAAAAAggAAAAAIABCBMAAAAICAoABAAsAgBQAZAAFgQAAgCACEAACA0CDhAAQAAIACAAA=

> <ActivityOutcome_CPDBAS_Rat>
inactive

$$$$

  CDK     0721101958

 15 16  0  0  0  0  0  0  0  0999 V2000
    5.6673   -2.2872    0.0000 C   0  0  0  0  0  4  0  0  0  0  0  0
    5.9405   -0.9836    0.0000 N   0  0  0  0  0  3  0  0  0  0  0  0
    7.2675   -0.8431    0.0000 C   0  0  0  0  0  4  0  0  0  0  0  0
    7.8061   -2.0608    0.0000 N   0  0  0  0  0  3  0  0  0  0  0  0
    6.8148   -2.9507    0.0000 C   0  0  0  0  0  4  0  0  0  0  0  0
    5.0506    0.0000    0.0000 C   0  0  0  0  0  4  0  0  0  0  0  0
    4.4495   -2.8258    0.0000 C   0  0  0  0  0  4  0  0  0  0  0  0
    3.3723   -2.0452    0.0000 C   0  0  0  0  0  4  0  0  0  0  0  0
    2.1077   -2.4589    0.0000 C   0  0  0  0  0  4  0  0  0  0  0  0
    1.3270   -1.3817    0.0000 C   0  0  0  0  0  4  0  0  0  0  0  0
    0.0000   -1.3817    0.0000 O   0  0  0  0  0  2  0  0  0  0  0  0
    2.1077   -0.3044    0.0000 O   0  0  0  0  0  2  0  0  0  0  0  0
    3.3723   -0.7182    0.0000 C   0  0  0  0  0  4  0  0  0  0  0  0
    1.7017   -3.7235    0.0000 C   0  0  0  0  0  4  0  0  0  0  0  0
    0.3981   -3.9967    0.0000 C   0  0  0  0  0  4  0  0  0  0  0  0
  1  2  1  0  0  0  0 
  1  5  2  0  0  0  0 
  1  7  1  0  0  0  0 
  2  3  1  0  0  0  0 
  2  6  1  0  0  0  0 
  3  4  2  0  0  0  0 
  4  5  1  0  0  0  0 
  8  7  1  6  0  0  0 
  8  9  1  0  0  0  0 
  8 13  1  0  0  0  0 
  9 10  1  0  0  0  0 
  9 14  1  6  0  0  0 
 10 11  2  0  0  0  0 
 10 12  1  0  0  0  0 
 12 13  1  0  0  0  0 
 14 15  1  0  0  0  0 
M  END
> <CDK Fingerprint>
AKCABiKAAgEKAIMmAQmADfgAQgAAAACAwAAAAIAAAAQFCQBgEIADBBAEAEAQEURQIgIoAACgAADAkAAgQAAAgEECACAFQgWAAAQEQEAAUIUEYRAAARASxCAAEABEAYAAAABAEQQCAAQAACAAFBgBAQgBDAEAUFAAACACAACCAAI=

> <ActivityOutcome_CPDBAS_Rat>
inactive

$$$$

  CDK     0721101958

 47 50  0  0  0  0  0  0  0  0999 V2000
    2.2978   -5.3213    0.0000 C   0  0  0  0  0  4  0  0  0  0  0  0
    2.2978   -7.9819    0.0000 O   0  0  0  0  0  2  0  0  0  0  0  0
    1.1576   -5.9778    0.0000 C   0  0  0  0  0  4  0  0  0  0  0  0
    1.1576   -7.3254    0.0000 C   0  0  0  0  0  4  0  0  0  0  0  0
    4.6129   -3.9910    0.0000 C   0  0  0  0  0  4  0  0  0  0  0  0
    3.4554   -3.3172    0.0000 C   0  0  0  0  0  4  0  0  0  0  0  0
    2.2978   -3.9910    0.0000 C   0  0  0  0  0  4  0  0  0  0  0  0
    6.9108   -3.9910    0.0000 C   0  0  0  0  0  4  0  0  0  0  0  0
    5.7532   -3.3172    0.0000 C   0  0  0  0  0  4  0  0  0  0  0  0
    8.0510   -3.3344    0.0000 C   0  0  0  0  0  4  0  0  0  0  0  0
    9.2259   -3.9910    0.0000 O   0  0  0  0  0  2  0  0  0  0  0  0
   10.3661   -3.3344    0.0000 C   0  0  0  0  0  4  0  0  0  0  0  0
   11.5237   -3.9910    0.0000 C   0  0  0  0  0  4  0  0  0  0  0  0
   10.3661   -5.9951    0.0000 C   0  0  0  0  0  4  0  0  0  0  0  0
   11.5237   -5.3213    0.0000 C   0  0  0  0  0  4  0  0  0  0  0  0
   10.3661   -7.3081    0.0000 C   0  0  0  0  0  4  0  0  0  0  0  0
    9.2259   -7.9819    0.0000 C   0  0  0  0  0  4  0  0  0  0  0  0
    6.9108   -9.3123    0.0000 C   0  0  0  0  0  4  0  0  0  0  0  0
    9.2259   -9.3123    0.0000 C   0  0  0  0  0  4  0  0  0  0  0  0
    8.0510   -9.9688    0.0000 C   0  0  0  0  0  4  0  0  0  0  0  0
    5.7705   -9.9688    0.0000 C   0  0  0  0  0  4  0  0  0  0  0  0
    4.6129   -9.3123    0.0000 C   0  0  0  0  0  4  0  0  0  0  0  0
    3.4727   -9.9688    0.0000 C   0  0  0  0  0  4  0  0  0  0  0  0
    2.2978   -9.3123    0.0000 C   0  0  0  0  0  4  0  0  0  0  0  0
    0.0000   -7.9819    0.0000 O   0  0  0  0  0  2  0  0  0  0  0  0
    1.1576   -9.9861    0.0000 C   0  0  0  0  0  4  0  0  0  0  0  0
   12.6640   -5.9951    0.0000 O   0  0  0  0  0  2  0  0  0  0  0  0
   10.3661   -2.0041    0.0000 C   0  0  0  0  0  4  0  0  0  0  0  0
    9.2259   -1.3303    0.0000 C   0  0  0  0  0  4  0  0  0  0  0  0
    8.0510   -2.0041    0.0000 C   0  0  0  0  0  4  0  0  0  0  0  0
   11.5237   -1.3303    0.0000 C   0  0  0  0  0  4  0  0  0  0  0  0
   12.6640   -2.0041    0.0000 O   0  0  0  0  0  2  0  0  0  0  0  0
   11.5237    0.0000    0.0000 O   0  0  0  0  0  2  0  0  0  0  0  0
    8.0510   -4.6648    0.0000 O   0  0  0  0  0  2  0  0  0  0  0  0
    9.2259    0.0000    0.0000 O   0  0  0  0  0  2  0  0  0  0  0  0
    5.7532   -1.9868    0.0000 O   0  0  0  0  0  2  0  0  0  0  0  0
    2.2978   -2.6606    0.0000 O   0  0  0  0  0  2  0  0  0  0  0  0
   13.8215   -5.3213    0.0000 C   0  0  0  0  0  4  0  0  0  0  0  0
   14.9791   -5.9951    0.0000 O   0  0  0  0  0  2  0  0  0  0  0  0
   13.8215   -3.9910    0.0000 C   0  0  0  0  0  4  0  0  0  0  0  0
   16.1366   -5.3213    0.0000 C   0  0  0  0  0  4  0  0  0  0  0  0
   14.9791   -3.3344    0.0000 C   0  0  0  0  0  4  0  0  0  0  0  0
   16.1366   -3.9910    0.0000 C   0  0  0  0  0  4  0  0  0  0  0  0
   12.6640   -3.3344    0.0000 O   0  0  0  0  0  2  0  0  0  0  0  0
   14.9791   -2.0041    0.0000 N   0  0  0  0  0  3  0  0  0  0  0  0
   17.2769   -3.3344    0.0000 O   0  0  0  0  0  2  0  0  0  0  0  0
   17.2769   -5.9951    0.0000 C   0  0  0  0  0  4  0  0  0  0  0  0
  1  3  2  0  0  0  0 
  1  7  1  0  0  0  0 
  2  4  1  0  0  0  0 
  2 24  1  0  0  0  0 
  3  4  1  0  0  0  0 
  4 25  2  0  0  0  0 
  5  6  1  0  0  0  0 
  5  9  1  0  0  0  0 
  6 37  1  0  0  0  0 
  6  7  1  0  0  0  0 
  7 37  1  0  0  0  0 
  8  9  1  0  0  0  0 
  8 10  1  0  0  0  0 
  9 36  1  6  0  0  0 
 10 11  1  0  0  0  0 
 10 30  1  0  0  0  0 
 10 34  1  1  0  0  0 
 11 12  1  0  0  0  0 
 12 13  1  0  0  0  0 
 12 28  1  0  0  0  0 
 13 15  1  0  0  0  0 
 14 15  1  0  0  0  0 
 14 16  2  0  0  0  0 
 15 27  1  1  0  0  0 
 16 17  1  0  0  0  0 
 17 19  2  0  0  0  0 
 18 20  2  0  0  0  0 
 18 21  1  0  0  0  0 
 19 20  1  0  0  0  0 
 21 22  2  0  0  0  0 
 22 23  1  0  0  0  0 
 23 24  1  0  0  0  0 
 24 26  1  1  0  0  0 
 38 27  1  1  0  0  0 
 28 29  1  0  0  0  0 
 28 31  1  1  0  0  0 
 29 30  1  0  0  0  0 
 29 35  1  6  0  0  0 
 31 32  1  0  0  0  0 
 31 33  2  0  0  0  0 
 38 39  1  0  0  0  0 
 38 40  1  0  0  0  0 
 39 41  1  0  0  0  0 
 40 42  1  0  0  0  0 
 40 44  1  1  0  0  0 
 41 43  1  0  0  0  0 
 41 47  1  1  0  0  0 
 42 43  1  0  0  0  0 
 42 45  1  1  0  0  0 
 43 46  1  6  0  0  0 
M  END
> <CDK Fingerprint>
AIjQgAEAAwADUikVg3VVBEAapAwKAQRxEOISAATjgAQAEVEIakSIAAQAIABZIRAAWCQCIgBYmBoyRACQM0BgBIAQAwRhhkIB4EAEFkBWYBNwAmAAGUkgDFQE8TEEAglCqAQASkaBAEQAAIAAAPEQIAONAAAEBPh4IAAogtUWAwQ4

> <ActivityOutcome_CPDBAS_Rat>
inactive

$$$$

  CDK     0721101958

  6  6  0  0  0  0  0  0  0  0999 V2000
    2.3036   -1.9950    0.0000 C   0  0  0  0  0  4  0  0  0  0  0  0
    1.1518   -2.6600    0.0000 C   0  0  0  0  0  4  0  0  0  0  0  0
    0.0000   -1.9950    0.0000 N   0  0  0  0  0  3  0  0  0  0  0  0
    0.0000   -0.6650    0.0000 C   0  0  0  0  0  4  0  0  0  0  0  0
    1.1518    0.0000    0.0000 C   0  0  0  0  0  4  0  0  0  0  0  0
    2.3036   -0.6650    0.0000 N   0  0  0  0  0  3  0  0  0  0  0  0
  1  2  1  0  0  0  0 
  1  6  1  0  0  0  0 
  2  3  1  0  0  0  0 
  3  4  1  0  0  0  0 
  4  5  1  0  0  0  0 
  5  6  1  0  0  0  0 
M  END
> <CDK Fingerprint>
EAAAAAAAAgAAAAABAAAAAAAAAAACAAAAAAAAAAAAAAAAYAAABAAAAAAAAAAAACAAABAAAAAAAAAAAIAAAAAAAAAAAAAAAAAAAAAAAACAAAAAAAAAAAAAAAAAAAAAAAAAAAAAAAAAAAAAAAAAAAAAAAAAAAAAAAAAAAAAAgAA

> <ActivityOutcome_CPDBAS_Rat>
inactive

$$$$

  CDK     0721101958

  6  6  0  0  0  0  0  0  0  0999 V2000
    2.3036   -1.9950    0.0000 C   0  0  0  0  0  4  0  0  0  0  0  0
    1.1518   -2.6600    0.0000 C   0  0  0  0  0  4  0  0  0  0  0  0
    0.0000   -1.9950    0.0000 C   0  0  0  0  0  4  0  0  0  0  0  0
    0.0000   -0.6650    0.0000 N   0  0  0  0  0  3  0  0  0  0  0  0
    1.1518    0.0000    0.0000 C   0  0  0  0  0  4  0  0  0  0  0  0
    2.3036   -0.6650    0.0000 C   0  0  0  0  0  4  0  0  0  0  0  0
  1  2  1  0  0  0  0 
  1  6  1  0  0  0  0 
  2  3  1  0  0  0  0 
  3  4  1  0  0  0  0 
  4  5  1  0  0  0  0 
  5  6  1  0  0  0  0 
M  END
> <CDK Fingerprint>
EAAAAAAAAgAAAAABAAAAAAAAAAAAAAAAAAAAAAAAAAEAYAAAAAAAAAAAAAAAACAAEAAAAAAAAAAAAMAAAAAAAAAAAAAAQAAAAAAAAACAAAAAACAAQAAAAAAAAAAAAAAAAAAAAQAAAAAAAAAQAAAAAAAAAAAAAAAAAAAAAgAA

> <ActivityOutcome_CPDBAS_Rat>
inactive

$$$$

  CDK     0721101958

 24 25  0  0  0  0  0  0  0  0999 V2000
   16.1183    0.0000    0.0000 C   0  0  0  0  0  4  0  0  0  0  0  0
   16.1183   -1.3346    0.0000 C   0  0  0  0  0  4  0  0  0  0  0  0
   14.9718   -2.0020    0.0000 C   0  0  0  0  0  4  0  0  0  0  0  0
   14.9718   -3.3195    0.0000 C   0  0  0  0  0  4  0  0  0  0  0  0
   16.1183   -3.9868    0.0000 C   0  0  0  0  0  4  0  0  0  0  0  0
   16.1183   -5.3214    0.0000 C   0  0  0  0  0  4  0  0  0  0  0  0
   14.9718   -5.9887    0.0000 C   0  0  0  0  0  4  0  0  0  0  0  0
   13.8254   -5.3214    0.0000 C   0  0  0  0  0  4  0  0  0  0  0  0
   13.8254   -3.9868    0.0000 C   0  0  0  0  0  4  0  0  0  0  0  0
   12.6619   -3.3195    0.0000 C   0  0  0  0  0  4  0  0  0  0  0  0
   11.5155   -3.9868    0.0000 O   0  0  0  0  0  2  0  0  0  0  0  0
   10.3691   -3.3195    0.0000 C   0  0  0  0  0  4  0  0  0  0  0  0
    9.2055   -3.9868    0.0000 C   0  0  0  0  0  4  0  0  0  0  0  0
    8.0591   -3.3195    0.0000 O   0  0  0  0  0  2  0  0  0  0  0  0
    6.9127   -3.9868    0.0000 C   0  0  0  0  0  4  0  0  0  0  0  0
    5.7663   -3.3195    0.0000 C   0  0  0  0  0  4  0  0  0  0  0  0
    4.6028   -3.9868    0.0000 O   0  0  0  0  0  2  0  0  0  0  0  0
    3.4564   -3.3195    0.0000 C   0  0  0  0  0  4  0  0  0  0  0  0
    2.3099   -3.9868    0.0000 C   0  0  0  0  0  4  0  0  0  0  0  0
    1.1464   -3.3195    0.0000 C   0  0  0  0  0  4  0  0  0  0  0  0
    0.0000   -3.9868    0.0000 C   0  0  0  0  0  4  0  0  0  0  0  0
   15.2456   -7.2892    0.0000 O   0  0  0  0  0  2  0  0  0  0  0  0
   16.5631   -7.4260    0.0000 C   0  0  0  0  0  4  0  0  0  0  0  0
   17.1107   -6.2112    0.0000 O   0  0  0  0  0  2  0  0  0  0  0  0
  1  2  1  0  0  0  0 
  2  3  1  0  0  0  0 
  3  4  1  0  0  0  0 
  4  5  2  0  0  0  0 
  4  9  1  0  0  0  0 
  5  6  1  0  0  0  0 
  6  7  2  0  0  0  0 
  6 24  1  0  0  0  0 
  7  8  1  0  0  0  0 
  7 22  1  0  0  0  0 
  8  9  2  0  0  0  0 
  9 10  1  0  0  0  0 
 10 11  1  0  0  0  0 
 11 12  1  0  0  0  0 
 12 13  1  0  0  0  0 
 13 14  1  0  0  0  0 
 14 15  1  0  0  0  0 
 15 16  1  0  0  0  0 
 16 17  1  0  0  0  0 
 17 18  1  0  0  0  0 
 18 19  1  0  0  0  0 
 19 20  1  0  0  0  0 
 20 21  1  0  0  0  0 
 22 23  1  0  0  0  0 
 23 24  1  0  0  0  0 
M  END
> <CDK Fingerprint>
AqAIAAAAAAVACgCSAAAAABAJAAKIQAEQgAACAUBCEgiIZArhUYAEgIAgGAAAIAAYIAbgIAAAACBpADAgQEAAAAAOGAAACABCBCACBEIAAIAAEggAgCCDQACUEQQAKsCCIAAKwEAgJGADEAACSBgECICQHAGACDAEgAGgIQAgKAA=

> <ActivityOutcome_CPDBAS_Rat>
active

> <TD50_Rat_mmol>
1.87

$$$$

  CDK     0721101958

 22 23  0  0  0  0  0  0  0  0999 V2000
    9.2189    0.0000    0.0000 C   0  0  0  0  0  4  0  0  0  0  0  0
    9.2189   -1.3384    0.0000 C   0  0  0  0  0  4  0  0  0  0  0  0
   10.3697   -2.0014    0.0000 C   0  0  0  0  0  4  0  0  0  0  0  0
   10.3697   -3.3273    0.0000 C   0  0  0  0  0  4  0  0  0  0  0  0
   11.5205   -3.9903    0.0000 C   0  0  0  0  0  4  0  0  0  0  0  0
   11.5205   -5.3287    0.0000 C   0  0  0  0  0  4  0  0  0  0  0  0
   10.3697   -5.9917    0.0000 C   0  0  0  0  0  4  0  0  0  0  0  0
    9.2189   -5.3287    0.0000 C   0  0  0  0  0  4  0  0  0  0  0  0
    9.2189   -3.9903    0.0000 C   0  0  0  0  0  4  0  0  0  0  0  0
   10.6449   -7.2926    0.0000 O   0  0  0  0  0  2  0  0  0  0  0  0
   11.9708   -7.4302    0.0000 C   0  0  0  0  0  4  0  0  0  0  0  0
   12.5087   -6.2168    0.0000 O   0  0  0  0  0  2  0  0  0  0  0  0
    8.0681   -2.0014    0.0000 S   0  0  0  0  0  4  0  0  0  0  0  0
    6.9173   -1.3384    0.0000 O   0  0  0  0  0  2  0  0  0  0  0  0
    8.0681   -3.3273    0.0000 C   0  0  0  0  0  4  0  0  0  0  0  0
    6.9173   -3.9903    0.0000 C   0  0  0  0  0  4  0  0  0  0  0  0
    5.7540   -3.3273    0.0000 C   0  0  0  0  0  4  0  0  0  0  0  0
    4.6032   -3.9903    0.0000 C   0  0  0  0  0  4  0  0  0  0  0  0
    3.4524   -3.3273    0.0000 C   0  0  0  0  0  4  0  0  0  0  0  0
    2.3016   -3.9903    0.0000 C   0  0  0  0  0  4  0  0  0  0  0  0
    1.1508   -3.3273    0.0000 C   0  0  0  0  0  4  0  0  0  0  0  0
    0.0000   -3.9903    0.0000 C   0  0  0  0  0  4  0  0  0  0  0  0
  1  2  1  0  0  0  0 
  2  3  1  0  0  0  0 
  2 13  1  0  0  0  0 
  3  4  1  0  0  0  0 
  4  5  2  0  0  0  0 
  4  9  1  0  0  0  0 
  5  6  1  0  0  0  0 
  6  7  2  0  0  0  0 
  6 12  1  0  0  0  0 
  7  8  1  0  0  0  0 
  7 10  1  0  0  0  0 
  8  9  2  0  0  0  0 
 10 11  1  0  0  0  0 
 11 12  1  0  0  0  0 
 13 14  2  0  0  0  0 
 13 15  1  0  0  0  0 
 15 16  1  0  0  0  0 
 16 17  1  0  0  0  0 
 17 18  1  0  0  0  0 
 18 19  1  0  0  0  0 
 19 20  1  0  0  0  0 
 20 21  1  0  0  0  0 
 21 22  1  0  0  0  0 
M  END
> <CDK Fingerprint>
BAAggAACAIZQCSCSAAAAAAAIEAIIAAAS0AACAEIAAggIJQNhAAAEhIIACAAAIAAEIETgIAAAgABAACAgQEABAAAGGAAgChlCBUBCRAAQQYBAUAgAgAAYAICVAQAAAoAAIAACwEIgYGGCEAgCyDgVAAAhHACBACAGAAGgAQIgCBA=

> <ActivityOutcome_CPDBAS_Rat>
inactive

$$$$

  CDK     0721101958

 23 25  0  0  0  0  0  0  0  0999 V2000
    4.6610   -4.7674    0.0000 O   0  0  0  0  0  2  0  0  0  0  0  0
    3.9906   -3.6181    0.0000 C   0  0  0  0  0  4  0  0  0  0  0  0
    4.6610   -2.4582    0.0000 C   0  0  0  0  0  4  0  0  0  0  0  0
    5.9912   -2.4582    0.0000 C   0  0  0  0  0  4  0  0  0  0  0  0
    6.6510   -3.6181    0.0000 O   0  0  0  0  0  2  0  0  0  0  0  0
    6.6510   -1.3089    0.0000 N   0  0  0  0  0  3  0  0  0  0  0  0
    7.9812   -1.3089    0.0000 C   0  0  0  0  0  4  0  0  0  0  0  0
    8.6516   -0.1596    0.0000 N   0  0  0  0  0  3  0  0  0  0  0  0
    9.9711   -0.1596    0.0000 C   0  0  0  0  0  4  0  0  0  0  0  0
   10.6415   -1.3089    0.0000 C   0  0  0  0  0  4  0  0  0  0  0  0
    9.9711   -2.4582    0.0000 C   0  0  0  0  0  4  0  0  0  0  0  0
    8.6516   -2.4582    0.0000 C   0  0  0  0  0  4  0  0  0  0  0  0
    3.9906   -1.3089    0.0000 N   0  0  0  0  0  3  0  0  0  0  0  0
    2.6604   -1.3089    0.0000 S   0  0  0  0  0  6  0  0  0  0  0  0
    1.4153   -0.8513    0.0000 O   0  0  0  0  0  2  0  0  0  0  0  0
    2.8945    0.0000    0.0000 O   0  0  0  0  0  2  0  0  0  0  0  0
    1.9900   -2.4582    0.0000 C   0  0  0  0  0  4  0  0  0  0  0  0
    2.6604   -3.6181    0.0000 C   0  0  0  0  0  4  0  0  0  0  0  0
    1.9900   -4.7674    0.0000 C   0  0  0  0  0  4  0  0  0  0  0  0
    0.6598   -4.7674    0.0000 C   0  0  0  0  0  4  0  0  0  0  0  0
    0.0000   -3.6181    0.0000 C   0  0  0  0  0  4  0  0  0  0  0  0
    0.6598   -2.4582    0.0000 C   0  0  0  0  0  4  0  0  0  0  0  0
    4.6610   -0.1596    0.0000 C   0  0  0  0  0  4  0  0  0  0  0  0
  1  2  1  0  0  0  0 
  2  3  2  0  0  0  0 
  2 18  1  0  0  0  0 
  3  4  1  0  0  0  0 
  3 13  1  0  0  0  0 
  4  5  2  0  0  0  0 
  4  6  1  0  0  0  0 
  6  7  1  0  0  0  0 
  7  8  2  0  0  0  0 
  7 12  1  0  0  0  0 
  8  9  1  0  0  0  0 
  9 10  2  0  0  0  0 
 10 11  1  0  0  0  0 
 11 12  2  0  0  0  0 
 13 14  1  0  0  0  0 
 13 23  1  0  0  0  0 
 14 15  2  0  0  0  0 
 14 16  2  0  0  0  0 
 14 17  1  0  0  0  0 
 17 18  2  0  0  0  0 
 17 22  1  0  0  0  0 
 18 19  1  0  0  0  0 
 19 20  2  0  0  0  0 
 20 21  1  0  0  0  0 
 21 22  2  0  0  0  0 
M  END
> <CDK Fingerprint>
RIMCMJAuJiIgAi8BASBAEAEYThAG9lGRASRSAAyIIgMAD2DAZISAGh6APAAEABxsPEQDIDQTIHAICACEDIm44RfAoDPAW5ABWCjqJIAAsBSAUAKAAQiAEIEwZCASkciiBEAwwSWGCQCIkKLUFGiKiIAwEIVwqmRpg4EQMIIESA==

> <ActivityOutcome_CPDBAS_Rat>
inactive

$$$$

  CDK     0721101958

  7  7  0  0  0  0  0  0  0  0999 V2000
    2.6594   -0.9392    0.0000 O   0  0  0  0  0  2  0  0  0  0  0  0
    2.6594   -2.2707    0.0000 C   0  0  0  0  0  4  0  0  0  0  0  0
    1.3279   -2.2707    0.0000 C   0  0  0  0  0  4  0  0  0  0  0  0
    0.0000   -2.2707    0.0000 C   0  0  0  0  0  4  0  0  0  0  0  0
    1.3279   -3.5986    0.0000 C   0  0  0  0  0  4  0  0  0  0  0  0
    1.3279   -0.9392    0.0000 C   0  0  0  0  0  4  0  0  0  0  0  0
    0.3886    0.0000    0.0000 O   0  0  0  0  0  2  0  0  0  0  0  0
  1  2  1  0  0  0  0 
  1  6  1  0  0  0  0 
  2  3  1  0  0  0  0 
  3  4  1  0  0  0  0 
  3  5  1  0  0  0  0 
  3  6  1  0  0  0  0 
  6  7  2  0  0  0  0 
M  END
> <CDK Fingerprint>
AIAAAAAAAAAAAAIAAAAAAAAAAAAAAACAAAAAgAAAAAAAAGAAAAAAAAAAAAAAAFAgAgAAAAAAAAAAAAJAAAAAAAAAAAAAAAAAAAAAAAAAAAAAAAAAAABAAAAQAAAAAAAAAEAAAAAAAAAAAAAAAAABAAAAAABQAAAAAAAAAAAAAA==

> <ActivityOutcome_CPDBAS_Rat>
active

> <TD50_Rat_mmol>
2.11

$$$$

  CDK     0721101958

 19 19  0  0  0  0  0  0  0  0999 V2000
   11.5045   -5.3536    0.0000 C   0  0  0  0  0  4  0  0  0  0  0  0
   11.5045   -4.0247    0.0000 N   0  0  0  0  0  3  0  0  0  0  0  0
   12.6563   -6.0244    0.0000 O   0  0  0  0  0  2  0  0  0  0  0  0
    2.3034   -1.3289    0.0000 N   0  0  0  0  0  3  0  0  0  0  0  0
   10.3528   -3.3539    0.0000 C   0  0  0  0  0  4  0  0  0  0  0  0
    6.9103   -1.3289    0.0000 O   0  0  0  0  0  2  0  0  0  0  0  0
    4.5942   -1.3289    0.0000 C   0  0  0  0  0  4  0  0  0  0  0  0
    8.0620   -2.0250    0.0000 C   0  0  0  0  0  4  0  0  0  0  0  0
    3.4552   -1.9870    0.0000 C   0  0  0  0  0  4  0  0  0  0  0  0
    5.7459   -1.9870    0.0000 C   0  0  0  0  0  4  0  0  0  0  0  0
   10.3528   -2.0250    0.0000 C   0  0  0  0  0  4  0  0  0  0  0  0
    9.2011   -4.0120    0.0000 C   0  0  0  0  0  4  0  0  0  0  0  0
    9.2011   -1.3416    0.0000 C   0  0  0  0  0  4  0  0  0  0  0  0
    8.0620   -3.3539    0.0000 C   0  0  0  0  0  4  0  0  0  0  0  0
    4.5942    0.0000    0.0000 O   0  0  0  0  0  2  0  0  0  0  0  0
    1.1517   -1.9870    0.0000 C   0  0  0  0  0  4  0  0  0  0  0  0
   10.3528   -6.0244    0.0000 C   0  0  0  0  0  4  0  0  0  0  0  0
    0.0000   -1.3289    0.0000 C   0  0  0  0  0  4  0  0  0  0  0  0
    1.1517   -3.3286    0.0000 C   0  0  0  0  0  4  0  0  0  0  0  0
  1  2  1  0  0  0  0 
  1  3  2  0  0  0  0 
  1 17  1  0  0  0  0 
  2  5  1  0  0  0  0 
  4  9  1  0  0  0  0 
  4 16  1  0  0  0  0 
  5 11  1  0  0  0  0 
  5 12  2  0  0  0  0 
  6  8  1  0  0  0  0 
  6 10  1  0  0  0  0 
  7 10  1  0  0  0  0 
  7  9  1  0  0  0  0 
  7 15  1  0  0  0  0 
  8 14  2  0  0  0  0 
  8 13  1  0  0  0  0 
 11 13  2  0  0  0  0 
 12 14  1  0  0  0  0 
 16 18  1  0  0  0  0 
 16 19  1  0  0  0  0 
M  END
> <CDK Fingerprint>
BAAQAAAAACAiAIgCABEABAAABAAAAABAgQAAAAAEwAIICAJhCAAAAAAAAAgABACYIAIUKACAAgBAAAQJwAQAAcACFAABEEMAAAAgBCSAAJAAAQBCIAAAQIAAEAAIAEAAIABAAAQgICAAAAACAAAAAAAAAACIUEFAAIAQAEAiEAA=

> <ActivityOutcome_CPDBAS_Rat>
inactive

$$$$

  CDK     0721101958

 23 26  0  0  0  0  0  0  0  0999 V2000
    8.0865   -2.1233    0.0000 O   0  0  0  0  0  2  0  0  0  0  0  0
    6.7668   -2.3218    0.0000 C   0  0  0  0  0  4  0  0  0  0  0  0
    6.3997   -3.5719    0.0000 N   0  0  0  0  0  3  0  0  0  0  0  0
    5.1396   -4.0780    0.0000 C   0  0  0  0  0  4  0  0  0  0  0  0
    5.1396   -5.4075    0.0000 C   0  0  0  0  0  4  0  0  0  0  0  0
    3.9887   -6.0723    0.0000 C   0  0  0  0  0  4  0  0  0  0  0  0
    2.8377   -5.4075    0.0000 C   0  0  0  0  0  4  0  0  0  0  0  0
    2.8377   -4.0780    0.0000 C   0  0  0  0  0  4  0  0  0  0  0  0
    3.9887   -3.4132    0.0000 C   0  0  0  0  0  4  0  0  0  0  0  0
    3.7803   -2.0836    0.0000 C   0  0  0  0  0  4  0  0  0  0  0  0
    4.7130   -1.1410    0.0000 N   0  0  0  0  0  3  0  0  0  0  0  0
    6.0227   -1.2204    0.0000 C   0  0  0  0  0  4  0  0  0  0  0  0
    2.5103   -1.6867    0.0000 C   0  0  0  0  0  4  0  0  0  0  0  0
    1.5677   -2.6293    0.0000 C   0  0  0  0  0  4  0  0  0  0  0  0
    0.2778   -2.2225    0.0000 C   0  0  0  0  0  4  0  0  0  0  0  0
    0.0000   -0.9426    0.0000 C   0  0  0  0  0  4  0  0  0  0  0  0
    0.9426    0.0000    0.0000 C   0  0  0  0  0  4  0  0  0  0  0  0
    2.2225   -0.4167    0.0000 C   0  0  0  0  0  4  0  0  0  0  0  0
    1.6867   -6.0723    0.0000 Cl  0  0  0  0  0  1  0  0  0  0  0  0
    7.3324   -4.5145    0.0000 C   0  0  0  0  0  4  0  0  0  0  0  0
    8.6421   -4.1573    0.0000 C   0  0  0  0  0  4  0  0  0  0  0  0
    9.5748   -3.2147    0.0000 C   0  0  0  0  0  4  0  0  0  0  0  0
    9.9221   -4.4947    0.0000 C   0  0  0  0  0  4  0  0  0  0  0  0
  1  2  2  0  0  0  0 
  2  3  1  0  0  0  0 
  2 12  1  0  0  0  0 
  3  4  1  0  0  0  0 
  3 20  1  0  0  0  0 
  4  5  2  0  0  0  0 
  4  9  1  0  0  0  0 
  5  6  1  0  0  0  0 
  6  7  2  0  0  0  0 
  7  8  1  0  0  0  0 
  7 19  1  0  0  0  0 
  8  9  2  0  0  0  0 
  9 10  1  0  0  0  0 
 10 11  2  0  0  0  0 
 10 13  1  0  0  0  0 
 11 12  1  0  0  0  0 
 13 14  2  0  0  0  0 
 13 18  1  0  0  0  0 
 14 15  1  0  0  0  0 
 15 16  2  0  0  0  0 
 16 17  1  0  0  0  0 
 17 18  2  0  0  0  0 
 20 21  1  0  0  0  0 
 21 22  1  0  0  0  0 
 21 23  1  0  0  0  0 
 22 23  1  0  0  0  0 
M  END
> <CDK Fingerprint>
AQAQCAAgQjAjAgCAAIsIAJABFCCAAENIEQEAAIUUwBIIoAngAAADCAAAACB2QwGgYIAUGAICAgBAIVQByCQBAcAEWAAgAQlQACAIIAWAIrAIAukCIABADNGBAAgAAJAgZIBABMAgBRCYgBB6QBAUAIEAFCDUUUBJIIIAAAACGkg=

> <ActivityOutcome_CPDBAS_Rat>
inactive

$$$$

  CDK     0721101958

 23 26  0  0  0  0  0  0  0  0999 V2000
    4.6025   -7.9798    0.0000 O   0  0  0  0  0  2  0  0  0  0  0  0
    4.6025   -6.6499    0.0000 C   0  0  0  0  0  4  0  0  0  0  0  0
    3.4579   -5.9889    0.0000 N   0  0  0  0  0  3  0  0  0  0  0  0
    3.4579   -4.6589    0.0000 C   0  0  0  0  0  4  0  0  0  0  0  0
    2.3053   -3.9899    0.0000 C   0  0  0  0  0  4  0  0  0  0  0  0
    1.1526   -4.6589    0.0000 C   0  0  0  0  0  4  0  0  0  0  0  0
    0.0000   -3.9899    0.0000 C   0  0  0  0  0  4  0  0  0  0  0  0
    0.0000   -2.6599    0.0000 C   0  0  0  0  0  4  0  0  0  0  0  0
    1.1526   -1.9990    0.0000 C   0  0  0  0  0  4  0  0  0  0  0  0
    2.3053   -2.6599    0.0000 C   0  0  0  0  0  4  0  0  0  0  0  0
    1.1526   -5.9889    0.0000 C   0  0  0  0  0  4  0  0  0  0  0  0
    2.3053   -6.6499    0.0000 C   0  0  0  0  0  4  0  0  0  0  0  0
    4.6025   -3.9899    0.0000 C   0  0  0  0  0  4  0  0  0  0  0  0
    5.7552   -4.6589    0.0000 N   0  0  0  0  0  3  0  0  0  0  0  0
    5.7552   -5.9889    0.0000 C   0  0  0  0  0  4  0  0  0  0  0  0
    6.9078   -3.9899    0.0000 C   0  0  0  0  0  4  0  0  0  0  0  0
    8.0604   -4.6589    0.0000 O   0  0  0  0  0  2  0  0  0  0  0  0
    6.9078   -2.6599    0.0000 C   0  0  0  0  0  4  0  0  0  0  0  0
    5.7552   -1.9990    0.0000 C   0  0  0  0  0  4  0  0  0  0  0  0
    5.7552   -0.6690    0.0000 C   0  0  0  0  0  4  0  0  0  0  0  0
    6.9078    0.0000    0.0000 C   0  0  0  0  0  4  0  0  0  0  0  0
    8.0604   -0.6690    0.0000 C   0  0  0  0  0  4  0  0  0  0  0  0
    8.0604   -1.9990    0.0000 C   0  0  0  0  0  4  0  0  0  0  0  0
  1  2  2  0  0  0  0 
  2  3  1  0  0  0  0 
  2 15  1  0  0  0  0 
  3  4  1  0  0  0  0 
  3 12  1  0  0  0  0 
  4  5  1  0  0  0  0 
  4 13  1  0  0  0  0 
  5  6  2  0  0  0  0 
  5 10  1  0  0  0  0 
  6  7  1  0  0  0  0 
  6 11  1  0  0  0  0 
  7  8  2  0  0  0  0 
  8  9  1  0  0  0  0 
  9 10  2  0  0  0  0 
 11 12  1  0  0  0  0 
 13 14  1  0  0  0  0 
 14 15  1  0  0  0  0 
 14 16  1  0  0  0  0 
 16 17  2  0  0  0  0 
 16 18  1  0  0  0  0 
 18 19  1  0  0  0  0 
 18 23  1  0  0  0  0 
 19 20  1  0  0  0  0 
 20 21  1  0  0  0  0 
 21 22  1  0  0  0  0 
 22 23  1  0  0  0  0 
M  END
> <CDK Fingerprint>
BBABABABwEIQApIUgxgCACEAGCAAAgjAAiAQEAAEJC0TAHAABSyQAABQEAgAAQAgABAUCkAAAUAARGDEAAAggIQMQAAAANBCIFIQAQABgABAAQCggMAAAYIAQEAIgAQgIUhCQCUEAFApKCJIEAQBwAAWwIBSAAQIAOUABAIAEA==

> <ActivityOutcome_CPDBAS_Rat>
inactive

$$$$

  CDK     0721101958

 44 48  0  0  0  0  0  0  0  0999 V2000
    7.0423   -3.7885    0.0000 C   0  0  0  0  0  4  0  0  0  0  0  0
    3.5746   -5.7286    0.0000 C   0  0  0  0  0  4  0  0  0  0  0  0
    8.3103   -3.3913    0.0000 C   0  0  0  0  0  4  0  0  0  0  0  0
    5.9425   -5.7286    0.0000 C   0  0  0  0  0  4  0  0  0  0  0  0
    7.0423   -5.0870    0.0000 C   0  0  0  0  0  4  0  0  0  0  0  0
    4.7204   -5.1175    0.0000 C   0  0  0  0  0  4  0  0  0  0  0  0
    3.5746   -7.0576    0.0000 C   0  0  0  0  0  4  0  0  0  0  0  0
    5.8813   -3.1164    0.0000 C   0  0  0  0  0  4  0  0  0  0  0  0
    4.7204   -3.8191    0.0000 C   0  0  0  0  0  4  0  0  0  0  0  0
    2.3831   -5.1175    0.0000 C   0  0  0  0  0  4  0  0  0  0  0  0
    8.3103   -2.0165    0.0000 C   0  0  0  0  0  4  0  0  0  0  0  0
    2.3831   -7.7756    0.0000 C   0  0  0  0  0  4  0  0  0  0  0  0
    9.0741   -4.3996    0.0000 C   0  0  0  0  0  4  0  0  0  0  0  0
    8.3103   -5.4536    0.0000 C   0  0  0  0  0  4  0  0  0  0  0  0
    5.9425   -7.0576    0.0000 C   0  0  0  0  0  4  0  0  0  0  0  0
    1.2068   -5.7286    0.0000 C   0  0  0  0  0  4  0  0  0  0  0  0
    1.2068   -7.0576    0.0000 C   0  0  0  0  0  4  0  0  0  0  0  0
    4.7204   -7.7756    0.0000 C   0  0  0  0  0  4  0  0  0  0  0  0
   11.7780   -1.3443    0.0000 C   0  0  0  0  0  4  0  0  0  0  0  0
   11.9307   -7.8214    0.0000 C   0  0  0  0  0  4  0  0  0  0  0  0
   11.9307   -9.1505    0.0000 N   0  0  0  0  0  3  0  0  0  0  0  0
    9.4560   -1.3443    0.0000 C   0  0  0  0  0  4  0  0  0  0  0  0
    7.0729   -1.3290    0.0000 O   0  0  0  0  0  2  0  0  0  0  0  0
   10.6017   -2.0470    0.0000 O   0  0  0  0  0  2  0  0  0  0  0  0
   11.7780    0.0000    0.0000 O   0  0  0  0  0  2  0  0  0  0  0  0
    0.0000   -7.7756    0.0000 O   0  0  0  0  0  2  0  0  0  0  0  0
    9.4407   -3.3913    0.0000 O   0  0  0  0  0  2  0  0  0  0  0  0
   13.0765   -7.1493    0.0000 C   0  0  0  0  0  4  0  0  0  0  0  0
   10.7697   -7.1493    0.0000 C   0  0  0  0  0  4  0  0  0  0  0  0
    7.0423   -2.4595    0.0000 C   0  0  0  0  0  4  0  0  0  0  0  0
    3.5594   -3.1164    0.0000 O   0  0  0  0  0  2  0  0  0  0  0  0
    3.5746   -4.3996    0.0000 C   0  0  0  0  0  4  0  0  0  0  0  0
   13.0765   -5.8355    0.0000 C   0  0  0  0  0  4  0  0  0  0  0  0
   10.7697   -5.8202    0.0000 C   0  0  0  0  0  4  0  0  0  0  0  0
   11.9307   -5.1481    0.0000 C   0  0  0  0  0  4  0  0  0  0  0  0
    8.5089   -9.8379    0.0000 Cl  0  0  0  0  0  1  0  0  0  0  0  0
   15.2762   -9.6851    0.0000 Cl  0  0  0  0  0  1  0  0  0  0  0  0
   13.0459   -1.9706    0.0000 C   0  0  0  0  0  4  0  0  0  0  0  0
   13.0459   -3.2844    0.0000 C   0  0  0  0  0  4  0  0  0  0  0  0
   13.0765   -9.8073    0.0000 C   0  0  0  0  0  4  0  0  0  0  0  0
   10.7850   -9.8226    0.0000 C   0  0  0  0  0  4  0  0  0  0  0  0
   11.9307   -3.8191    0.0000 C   0  0  0  0  0  4  0  0  0  0  0  0
   14.2222   -9.0741    0.0000 C   0  0  0  0  0  4  0  0  0  0  0  0
    9.6393   -9.1657    0.0000 C   0  0  0  0  0  4  0  0  0  0  0  0
  1  3  1  0  0  0  0 
  1  5  1  0  0  0  0 
  1  8  1  0  0  0  0 
  1 30  1  1  0  0  0 
  2  6  1  0  0  0  0 
  2  7  1  0  0  0  0 
  2 10  1  0  0  0  0 
  2 32  1  1  0  0  0 
  3 11  1  1  0  0  0 
  3 13  1  0  0  0  0 
  3 27  1  6  0  0  0 
  4  5  1  0  0  0  0 
  4 15  1  0  0  0  0 
  4  6  1  0  0  0  0 
  5 14  1  0  0  0  0 
  6  9  1  0  0  0  0 
  7 12  2  0  0  0  0 
  7 18  1  0  0  0  0 
  8  9  1  0  0  0  0 
  9 31  1  1  0  0  0 
 10 16  2  0  0  0  0 
 11 22  1  0  0  0  0 
 11 23  2  0  0  0  0 
 12 17  1  0  0  0  0 
 13 14  1  0  0  0  0 
 15 18  1  0  0  0  0 
 16 17  1  0  0  0  0 
 17 26  2  0  0  0  0 
 19 24  1  0  0  0  0 
 19 25  2  0  0  0  0 
 19 38  1  0  0  0  0 
 20 29  1  0  0  0  0 
 20 21  1  0  0  0  0 
 20 28  2  0  0  0  0 
 21 40  1  0  0  0  0 
 21 41  1  0  0  0  0 
 22 24  1  0  0  0  0 
 28 33  1  0  0  0  0 
 29 34  2  0  0  0  0 
 33 35  2  0  0  0  0 
 34 35  1  0  0  0  0 
 35 42  1  0  0  0  0 
 36 44  1  0  0  0  0 
 37 43  1  0  0  0  0 
 38 39  1  0  0  0  0 
 39 42  1  0  0  0  0 
 40 43  1  0  0  0  0 
 41 44  1  0  0  0  0 
M  END
> <CDK Fingerprint>
AMCQIAABAQEqIAASFQBEABAsAgKABEBFwQAAAMAFQAIJUQjgAIAGAAAEAQEgEQHQpCImQAJIEgBCABAgxEQEAUAFCAkEQhGCFAUUAEaAEZAAAAQBAQAEQACBEAAAAIIAIQBIBUAgQAEgIAACQBAEAZAAHAiE9DiEAoABQFYiMCA=

> <ActivityOutcome_CPDBAS_Rat>
active

> <TD50_Rat_mmol>
0.0297

$$$$

  CDK     0721101958

 26 29  0  0  0  0  0  0  0  0999 V2000
    6.9411   -2.4647    0.0000 C   0  0  0  0  0  4  0  0  0  0  0  0
    3.4969   -4.4448    0.0000 C   0  0  0  0  0  4  0  0  0  0  0  0
    8.2261   -2.0644    0.0000 C   0  0  0  0  0  4  0  0  0  0  0  0
    5.8035   -4.4553    0.0000 C   0  0  0  0  0  4  0  0  0  0  0  0
    6.9411   -3.8023    0.0000 C   0  0  0  0  0  4  0  0  0  0  0  0
    4.6555   -3.7813    0.0000 C   0  0  0  0  0  4  0  0  0  0  0  0
    3.4969   -5.7719    0.0000 C   0  0  0  0  0  4  0  0  0  0  0  0
    5.8035   -1.8116    0.0000 C   0  0  0  0  0  4  0  0  0  0  0  0
    4.6555   -2.4647    0.0000 C   0  0  0  0  0  4  0  0  0  0  0  0
    2.3277   -3.7813    0.0000 C   0  0  0  0  0  4  0  0  0  0  0  0
    2.3277   -6.4355    0.0000 C   0  0  0  0  0  4  0  0  0  0  0  0
    8.2261   -0.7162    0.0000 C   0  0  0  0  0  4  0  0  0  0  0  0
    8.9739   -3.1282    0.0000 C   0  0  0  0  0  4  0  0  0  0  0  0
    8.2261   -4.2026    0.0000 C   0  0  0  0  0  4  0  0  0  0  0  0
    5.8035   -5.7509    0.0000 C   0  0  0  0  0  4  0  0  0  0  0  0
    1.1902   -4.4553    0.0000 C   0  0  0  0  0  4  0  0  0  0  0  0
    1.1902   -5.7509    0.0000 C   0  0  0  0  0  4  0  0  0  0  0  0
    4.6555   -6.4355    0.0000 C   0  0  0  0  0  4  0  0  0  0  0  0
    7.0991    0.0000    0.0000 O   0  0  0  0  0  2  0  0  0  0  0  0
    0.0000   -6.4144    0.0000 O   0  0  0  0  0  2  0  0  0  0  0  0
    9.4795   -1.6852    0.0000 O   0  0  0  0  0  2  0  0  0  0  0  0
    6.9411   -1.1375    0.0000 C   0  0  0  0  0  4  0  0  0  0  0  0
    3.4653   -1.8011    0.0000 O   0  0  0  0  0  2  0  0  0  0  0  0
    3.4969   -3.1072    0.0000 C   0  0  0  0  0  4  0  0  0  0  0  0
    9.3952   -0.0843    0.0000 C   0  0  0  0  0  4  0  0  0  0  0  0
   10.5327   -0.8321    0.0000 O   0  0  0  0  0  2  0  0  0  0  0  0
  1  3  1  0  0  0  0 
  1  5  1  0  0  0  0 
  1  8  1  0  0  0  0 
  1 22  1  1  0  0  0 
  2  6  1  0  0  0  0 
  2  7  1  0  0  0  0 
  2 10  1  0  0  0  0 
  2 24  1  1  0  0  0 
  3 12  1  1  0  0  0 
  3 13  1  0  0  0  0 
  3 21  1  6  0  0  0 
  4  5  1  0  0  0  0 
  4 15  1  0  0  0  0 
  4  6  1  0  0  0  0 
  5 14  1  0  0  0  0 
  6  9  1  0  0  0  0 
  7 11  2  0  0  0  0 
  7 18  1  0  0  0  0 
  8  9  1  0  0  0  0 
  9 23  1  1  0  0  0 
 10 16  2  0  0  0  0 
 11 17  1  0  0  0  0 
 12 19  2  0  0  0  0 
 12 25  1  0  0  0  0 
 13 14  1  0  0  0  0 
 15 18  1  0  0  0  0 
 16 17  1  0  0  0  0 
 17 20  2  0  0  0  0 
 25 26  1  0  0  0  0 
M  END
> <CDK Fingerprint>
QAAAAAEAAAAgAAIVAAQAAAAAAoAEQABAAAAAQAEAAAFRCOAAAAIAAAABACAQARAgICIAAAgQAAAAECBEQAQAAAAAAQRAAAAAARQAAAABAAAAAAAAAAAAAAAQAAAAAAABAEAAAABAACAAAAAAEAQBkAAAAACwOAAAAAFAViAAIA==

> <ActivityOutcome_CPDBAS_Rat>
active

> <TD50_Rat_mmol>
0.00424

$$$$

  CDK     0721101958

 16 17  0  0  0  0  0  0  0  0999 V2000
    2.3032   -0.6663    0.0000 C   0  0  0  0  0  4  0  0  0  0  0  0
    3.4577    0.0000    0.0000 O   0  0  0  0  0  2  0  0  0  0  0  0
    2.3032   -1.9931    0.0000 C   0  0  0  0  0  4  0  0  0  0  0  0
    2.7570   -3.2452    0.0000 C   0  0  0  0  0  4  0  0  0  0  0  0
    4.0665   -3.4749    0.0000 C   0  0  0  0  0  4  0  0  0  0  0  0
    4.5203   -4.7271    0.0000 C   0  0  0  0  0  4  0  0  0  0  0  0
    3.6702   -5.7437    0.0000 C   0  0  0  0  0  4  0  0  0  0  0  0
    2.3607   -5.5140    0.0000 C   0  0  0  0  0  4  0  0  0  0  0  0
    1.9012   -4.2618    0.0000 C   0  0  0  0  0  4  0  0  0  0  0  0
    3.6128   -1.7633    0.0000 C   0  0  0  0  0  4  0  0  0  0  0  0
    4.4686   -2.7800    0.0000 C   0  0  0  0  0  4  0  0  0  0  0  0
    1.1545   -2.6593    0.0000 C   0  0  0  0  0  4  0  0  0  0  0  0
    1.1545   -3.9919    0.0000 O   0  0  0  0  0  2  0  0  0  0  0  0
    0.0000   -1.9931    0.0000 N   0  0  0  0  0  3  0  0  0  0  0  0
    0.0000   -0.6663    0.0000 C   0  0  0  0  0  4  0  0  0  0  0  0
    1.1545    0.0000    0.0000 N   0  0  0  0  0  3  0  0  0  0  0  0
  1  2  2  0  0  0  0 
  1  3  1  0  0  0  0 
  1 16  1  0  0  0  0 
  3  4  1  0  0  0  0 
  3 10  1  0  0  0  0 
  3 12  1  0  0  0  0 
  4  5  2  0  0  0  0 
  4  9  1  0  0  0  0 
  5  6  1  0  0  0  0 
  6  7  2  0  0  0  0 
  7  8  1  0  0  0  0 
  8  9  2  0  0  0  0 
 10 11  1  0  0  0  0 
 12 13  2  0  0  0  0 
 12 14  1  0  0  0  0 
 14 15  1  0  0  0  0 
 15 16  1  0  0  0  0 
M  END
> <CDK Fingerprint>
AKAAAAAAgAIQBFACAQAAAAgAAAAAAAAAAgAAAAAEAAgAAGAAACiAAAAgAAAAAEAgAEAAAAAAAEAACCLQAAAAgEYMIABAAUEEABIAAAAAgAAAAAAgAEAAAIAAAAAAgAAgAGAIQCQEAAAAAALAEAQBJABcAIBQAAQBAAAAKIIAAA==

> <ActivityOutcome_CPDBAS_Rat>
inactive

$$$$

  CDK     0721101958

 19 19  0  0  0  0  0  0  0  0999 V2000
    3.6323   -3.9915    0.0000 O   0  0  0  0  0  2  0  0  0  0  0  0
    2.3051   -3.9915    0.0000 S   0  0  0  0  0  6  0  0  0  0  0  0
    0.9779   -3.9915    0.0000 O   0  0  0  0  0  2  0  0  0  0  0  0
    2.3051   -5.3187    0.0000 C   0  0  0  0  0  4  0  0  0  0  0  0
    1.1476   -5.9873    0.0000 C   0  0  0  0  0  4  0  0  0  0  0  0
    1.1476   -7.3145    0.0000 C   0  0  0  0  0  4  0  0  0  0  0  0
    2.3051   -7.9831    0.0000 C   0  0  0  0  0  4  0  0  0  0  0  0
    3.4527   -7.3145    0.0000 C   0  0  0  0  0  4  0  0  0  0  0  0
    3.4527   -5.9873    0.0000 C   0  0  0  0  0  4  0  0  0  0  0  0
    2.3051   -9.3103    0.0000 C   0  0  0  0  0  4  0  0  0  0  0  0
    3.4527   -9.9788    0.0000 O   0  0  0  0  0  2  0  0  0  0  0  0
    1.1476   -9.9788    0.0000 O   0  0  0  0  0  2  0  0  0  0  0  0
    2.3051   -2.6644    0.0000 N   0  0  0  0  0  3  0  0  0  0  0  0
    1.1476   -1.9958    0.0000 C   0  0  0  0  0  4  0  0  0  0  0  0
    1.1476   -0.6686    0.0000 C   0  0  0  0  0  4  0  0  0  0  0  0
    0.0000    0.0000    0.0000 C   0  0  0  0  0  4  0  0  0  0  0  0
    3.4527   -1.9958    0.0000 C   0  0  0  0  0  4  0  0  0  0  0  0
    4.6102   -2.6644    0.0000 C   0  0  0  0  0  4  0  0  0  0  0  0
    5.7578   -1.9958    0.0000 C   0  0  0  0  0  4  0  0  0  0  0  0
  1  2  2  0  0  0  0 
  2  3  2  0  0  0  0 
  2  4  1  0  0  0  0 
  2 13  1  0  0  0  0 
  4  5  2  0  0  0  0 
  4  9  1  0  0  0  0 
  5  6  1  0  0  0  0 
  6  7  2  0  0  0  0 
  7  8  1  0  0  0  0 
  7 10  1  0  0  0  0 
  8  9  2  0  0  0  0 
 10 11  2  0  0  0  0 
 10 12  1  0  0  0  0 
 13 14  1  0  0  0  0 
 13 17  1  0  0  0  0 
 14 15  1  0  0  0  0 
 15 16  1  0  0  0  0 
 17 18  1  0  0  0  0 
 18 19  1  0  0  0  0 
M  END
> <CDK Fingerprint>
BJAAIAAABQIAgAIAAQAAAAEABAIAEgAQAAFQAAAAAAAAGWhABAAEAgAAAAAAAAAgAFAAIBAAIEAIAADAAIEgAAQAgAAAEQAAQAAIIAAAgAAAAAKgAAAAAIEQBAAAkgAhAEAAwCAEAgAAAAJAEAAICMAIAIFwKGABAQEggAIAAA==

> <ActivityOutcome_CPDBAS_Rat>
inactive

$$$$

  CDK     0721101958

 16 16  0  0  0  0  0  0  0  0999 V2000
    0.0000   -2.6624    0.0000 C   0  0  0  0  0  4  0  0  0  0  0  0
    1.1499   -1.9994    0.0000 N   0  0  0  0  0  3  0  0  0  0  0  0
    1.1499   -0.6630    0.0000 N   0  0  0  0  0  3  0  0  0  0  0  0
    2.2998    0.0000    0.0000 C   0  0  0  0  0  4  0  0  0  0  0  0
    3.4497   -0.6630    0.0000 C   0  0  0  0  0  4  0  0  0  0  0  0
    4.5996    0.0000    0.0000 C   0  0  0  0  0  4  0  0  0  0  0  0
    5.7599   -0.6630    0.0000 C   0  0  0  0  0  4  0  0  0  0  0  0
    5.7599   -1.9994    0.0000 C   0  0  0  0  0  4  0  0  0  0  0  0
    4.5996   -2.6624    0.0000 C   0  0  0  0  0  4  0  0  0  0  0  0
    3.4497   -1.9994    0.0000 C   0  0  0  0  0  4  0  0  0  0  0  0
    6.9098   -2.6624    0.0000 C   0  0  0  0  0  4  0  0  0  0  0  0
    6.9098   -3.9884    0.0000 O   0  0  0  0  0  2  0  0  0  0  0  0
    8.0597   -1.9994    0.0000 N   0  0  0  0  0  3  0  0  0  0  0  0
    9.2096   -2.6624    0.0000 C   0  0  0  0  0  4  0  0  0  0  0  0
   10.3595   -1.9994    0.0000 C   0  0  0  0  0  4  0  0  0  0  0  0
    9.2096   -3.9884    0.0000 C   0  0  0  0  0  4  0  0  0  0  0  0
  1  2  1  0  0  0  0 
  2  3  1  0  0  0  0 
  3  4  1  0  0  0  0 
  4  5  1  0  0  0  0 
  5  6  2  0  0  0  0 
  5 10  1  0  0  0  0 
  6  7  1  0  0  0  0 
  7  8  2  0  0  0  0 
  8  9  1  0  0  0  0 
  8 11  1  0  0  0  0 
  9 10  2  0  0  0  0 
 11 12  2  0  0  0  0 
 11 13  1  0  0  0  0 
 13 14  1  0  0  0  0 
 14 15  1  0  0  0  0 
 14 16  1  0  0  0  0 
M  END
> <CDK Fingerprint>
AQAQAAAAAIBCEIAAAACIAAAgAAAAAAAIAgAAAhAAAGQAAABoAAAAFAAAAAAAAAEAIEAABAACAABAAAAAwAAAMIAUAAACAAAAQAAAABAIAIAAgAAAAAAAAAWAAAAAAIAAIABAJEAgAAAAAAACSAAACEAAAhCAUghAAQAAAAADAAA=

> <ActivityOutcome_CPDBAS_Rat>
active

> <TD50_Rat_mmol>
0.0181

$$$$

  CDK     0721101958

  7  7  0  0  0  0  0  0  0  0999 V2000
    1.1893   -3.1857    0.0000 O   0  0  0  0  0  2  0  0  0  0  0  0
    1.3310   -1.8647    0.0000 S   0  0  0  0  0  6  0  0  0  0  0  0
    0.0000   -1.8647    0.0000 O   0  0  0  0  0  2  0  0  0  0  0  0
    1.1893   -0.5403    0.0000 C   0  0  0  0  0  4  0  0  0  0  0  0
    2.4049    0.0000    0.0000 C   0  0  0  0  0  4  0  0  0  0  0  0
    3.2944   -0.9883    0.0000 C   0  0  0  0  0  4  0  0  0  0  0  0
    2.6290   -2.1414    0.0000 O   0  0  0  0  0  2  0  0  0  0  0  0
  1  2  2  0  0  0  0 
  2  3  2  0  0  0  0 
  2  4  1  0  0  0  0 
  2  7  1  0  0  0  0 
  4  5  1  0  0  0  0 
  5  6  1  0  0  0  0 
  6  7  1  0  0  0  0 
M  END
> <CDK Fingerprint>
EAAAAAAAAACCAAAAAAAAAAAAAAAAAAAAAAAAABAAAAFkAABAAAAAAAAAAAAQIAAAAAAAAAAAAAAAQAAAAAAAAAAAABGAAAAAACAAgABAAAACgAAAAAABEAAAAAAAAIAAAAABAAgAAAAAAAAQAAAgAAAAACAQQAAAAAAAABA=

> <ActivityOutcome_CPDBAS_Rat>
active

> <TD50_Rat_mmol>
0.0314

$$$$

  CDK     0721101958

  5  5  0  0  0  0  0  0  0  0999 V2000
    0.0000   -0.9406    0.0000 O   0  0  0  0  0  2  0  0  0  0  0  0
    1.3291   -0.9406    0.0000 C   0  0  0  0  0  4  0  0  0  0  0  0
    2.2697    0.0000    0.0000 C   0  0  0  0  0  4  0  0  0  0  0  0
    3.2103   -0.9406    0.0000 C   0  0  0  0  0  4  0  0  0  0  0  0
    2.2697   -1.8812    0.0000 O   0  0  0  0  0  2  0  0  0  0  0  0
  1  2  2  0  0  0  0 
  2  3  1  0  0  0  0 
  2  5  1  0  0  0  0 
  3  4  1  0  0  0  0 
  4  5  1  0  0  0  0 
M  END
> <CDK Fingerprint>
AgAAAAAAAAAAAAAAAIAAAACAAAAAAAAAYAAAAAAAAAAAAAAAUCACAAAAAAAAAAAAAkAAAAAAAAAAAAAAAAAAAAAAAAAAAAAAAAAAAAAAABAAAAAAAAAAQAAAAAAAAAAAAAAAAAEAAAAAAFAAAAAAAAAAAAAA

> <ActivityOutcome_CPDBAS_Rat>
active

> <TD50_Rat_mmol>
0.0203

$$$$

  CDK     0721101958

 15 15  0  0  0  0  0  0  0  0999 V2000
    3.3244   -1.1547    0.0000 O   0  0  0  0  0  2  0  0  0  0  0  0
    3.9948   -2.3094    0.0000 C   0  0  0  0  0  4  0  0  0  0  0  0
    5.3172   -2.3094    0.0000 C   0  0  0  0  0  4  0  0  0  0  0  0
    5.9876   -1.1547    0.0000 C   0  0  0  0  0  4  0  0  0  0  0  0
    7.3192   -1.1547    0.0000 C   0  0  0  0  0  4  0  0  0  0  0  0
    7.9804   -2.3094    0.0000 C   0  0  0  0  0  4  0  0  0  0  0  0
    7.3192   -3.4548    0.0000 C   0  0  0  0  0  4  0  0  0  0  0  0
    5.9876   -3.4548    0.0000 C   0  0  0  0  0  4  0  0  0  0  0  0
    7.9804   -4.6094    0.0000 O   0  0  0  0  0  2  0  0  0  0  0  0
    9.3120   -2.3094    0.0000 O   0  0  0  0  0  2  0  0  0  0  0  0
    7.9804    0.0000    0.0000 O   0  0  0  0  0  2  0  0  0  0  0  0
    3.3244   -3.4548    0.0000 O   0  0  0  0  0  2  0  0  0  0  0  0
    1.9928   -3.4548    0.0000 C   0  0  0  0  0  4  0  0  0  0  0  0
    1.3316   -4.6094    0.0000 C   0  0  0  0  0  4  0  0  0  0  0  0
    0.0000   -4.6094    0.0000 C   0  0  0  0  0  4  0  0  0  0  0  0
  1  2  2  0  0  0  0 
  2  3  1  0  0  0  0 
  2 12  1  0  0  0  0 
  3  4  2  0  0  0  0 
  3  8  1  0  0  0  0 
  4  5  1  0  0  0  0 
  5  6  2  0  0  0  0 
  5 11  1  0  0  0  0 
  6  7  1  0  0  0  0 
  6 10  1  0  0  0  0 
  7  8  2  0  0  0  0 
  7  9  1  0  0  0  0 
 12 13  1  0  0  0  0 
 13 14  1  0  0  0  0 
 14 15  1  0  0  0  0 
M  END
> <CDK Fingerprint>
AoCAAAAAAAEAAoACAAAAAAABAAAAAAAAgAAAAIAARACAAAppAIAChIgAAAAAgABQIAYAIAAAACBIAAAAQAAAAAAMAAAAAAACAAAAAAIAAIAAEgAAIAAEQACAEAAAIIAAIABIAEAgJAABAAACQAgACACQAAiAUAhAAAEAIAAAAAA=

> <ActivityOutcome_CPDBAS_Rat>
inactive

$$$$

  CDK     0721101958

 12 11  0  0  0  0  0  0  0  0999 V2000
    3.9893   -3.4539    0.0000 N   0  0  0  0  0  3  0  0  0  0  0  0
    2.6595   -3.4539    0.0000 C   0  0  0  0  0  4  0  0  0  0  0  0
    1.9918   -4.6053    0.0000 N   0  0  0  0  0  3  0  0  0  0  0  0
    2.6595   -5.7566    0.0000 C   0  0  0  0  0  4  0  0  0  0  0  0
    3.9893   -5.7566    0.0000 C   0  0  0  0  0  4  0  0  0  0  0  0
    4.6513   -4.6053    0.0000 C   0  0  0  0  0  4  0  0  0  0  0  0
    0.6620   -4.6053    0.0000 N   0  0  0  0  0  3  0  0  0  0  0  0
    0.0000   -3.4539    0.0000 O   0  0  0  0  0  2  0  0  0  0  0  0
    1.9918   -2.3026    0.0000 N   0  0  0  0  0  3  0  0  0  0  0  0
    2.6595   -1.1513    0.0000 N   0  0  0  0  0  4  0  0  0  0  0  0
    1.9918    0.0000    0.0000 O   0  0  0  0  0  2  0  0  0  0  0  0
    3.9893   -1.1513    0.0000 O   0  0  0  0  0  1  0  0  0  0  0  0
  1  2  2  0  0  0  0 
  2  3  1  0  0  0  0 
  2  9  1  0  0  0  0 
  3  4  1  0  0  0  0 
  3  7  1  0  0  0  0 
  4  5  1  0  0  0  0 
  5  6  1  0  0  0  0 
  7  8  2  0  0  0  0 
  9 10  1  0  0  0  0 
 10 11  2  0  0  0  0 
 10 12  1  0  0  0  0 
M  CHG  1  10   1
M  CHG  1  12  -1
M  END
> <CDK Fingerprint>
CABAAGIQAEgAAYAAAAAAAACQAAAAgAAAAAAABAUgIGAAAAOACAAAAAAAAABiAEFABkAAAAAAAADAAAAAAAAAAAEAAAAAAAAAAAAAgAAIBAAgAAAAAAAAIgAAAAAAABQgAAAACAAAAAAAAAAAAAAAAAAAAAAAAAAAAAMAAA==

> <ActivityOutcome_CPDBAS_Rat>
active

> <TD50_Rat_mmol>
0.00748

$$$$

  CDK     0721101958

  9  8  0  0  0  0  0  0  0  0999 V2000
    0.0000   -1.9953    0.0000 O   0  0  0  0  0  2  0  0  0  0  0  0
    1.1520   -2.6588    0.0000 N   0  0  0  0  0  3  0  0  0  0  0  0
    2.3040   -1.9953    0.0000 N   0  0  0  0  0  3  0  0  0  0  0  0
    2.3040   -0.6635    0.0000 C   0  0  0  0  0  4  0  0  0  0  0  0
    1.1520    0.0000    0.0000 O   0  0  0  0  0  2  0  0  0  0  0  0
    3.4560    0.0000    0.0000 N   0  0  0  0  0  3  0  0  0  0  0  0
    3.4560   -2.6588    0.0000 C   0  0  0  0  0  4  0  0  0  0  0  0
    4.6080   -1.9953    0.0000 C   0  0  0  0  0  4  0  0  0  0  0  0
    4.6080   -0.6635    0.0000 C   0  0  0  0  0  4  0  0  0  0  0  0
  1  2  2  0  0  0  0 
  2  3  1  0  0  0  0 
  3  4  1  0  0  0  0 
  3  7  1  0  0  0  0 
  4  5  2  0  0  0  0 
  4  6  1  0  0  0  0 
  7  8  1  0  0  0  0 
  8  9  1  0  0  0  0 
M  END
> <CDK Fingerprint>
AhAASAABgAAAAAAAABAAAAAAAAAAAAAEBQAAYAAAAoAAAAAAAAABACAAQQACAAAAAAAAAMAAAAKAAAAAAAAAAAAAAAAAAACAAAAAACAAAAAAAAAAAAAAAAAARCAAAAAIAAAAAAAAAAAAAAAAAEAAAAAAAAAAAwAA

> <ActivityOutcome_CPDBAS_Rat>
active

> <TD50_Rat_mmol>
0.0287

$$$$

  CDK     0721101958

  3  2  0  0  0  0  0  0  0  0999 V2000
    2.3030   -0.6656    0.0000 C   0  0  0  0  0  4  0  0  0  0  0  0
    1.1515    0.0000    0.0000 C   0  0  0  0  0  4  0  0  0  0  0  0
    0.0000   -0.6656    0.0000 C   0  0  0  0  0  4  0  0  0  0  0  0
  1  2  1  0  0  0  0 
  2  3  2  0  0  0  0 
M  END
> <CDK Fingerprint>
QAAAAAAAAAAAAAAAAAAAAAAAAAAAAAAAAAAAAAAAAAAAAEAAAAAAAAAAAAAAAAAgAAAAAAAQAAAAAAAAAAAAAAAAAAAAAAAAAAAAAAAAAAAAAAAAAAAAAAAAAAAAAAAAAAAAAAAAAAAAAAAAAAAAAAAAAAAAAAAAAAAAAAAAAA==

> <ActivityOutcome_CPDBAS_Rat>
inactive

$$$$

  CDK     0721101958

  5  4  0  0  0  0  0  0  0  0999 V2000
    3.4567   -1.9945    0.0000 C   0  0  0  0  0  4  0  0  0  0  0  0
    2.3056   -1.3308    0.0000 C   0  0  0  0  0  4  0  0  0  0  0  0
    1.1511   -1.9945    0.0000 C   0  0  0  0  0  4  0  0  0  0  0  0
    0.0000   -1.3308    0.0000 O   0  0  0  0  0  2  0  0  0  0  0  0
    2.3056    0.0000    0.0000 O   0  0  0  0  0  2  0  0  0  0  0  0
  1  2  1  0  0  0  0 
  2  3  1  0  0  0  0 
  2  5  1  0  0  0  0 
  3  4  1  0  0  0  0 
M  END
> <CDK Fingerprint>
AgAAAAAAAAAAAAAAAAAAAAAAAAAAAAAAYAAAAAAAAAAAAAAAGCAAAAAAAAAAAAAAAEAAAAAAAAAAAAAAAAAAAAAAAAAAAAAAAAAAAAAAABAAAAAAAAAAAAAAAAAAAAAAAAAAAAAAAAAAAAAAAAAAAAAAAAAA

> <ActivityOutcome_CPDBAS_Rat>
inactive

$$$$

  CDK     0721101958

  9  8  0  0  0  0  0  0  0  0999 V2000
    4.6112    0.0000    0.0000 O   0  0  0  0  0  2  0  0  0  0  0  0
    4.6112   -1.3315    0.0000 C   0  0  0  0  0  4  0  0  0  0  0  0
    3.4584   -1.9943    0.0000 C   0  0  0  0  0  4  0  0  0  0  0  0
    2.3056   -1.3315    0.0000 O   0  0  0  0  0  2  0  0  0  0  0  0
    1.1528   -1.9943    0.0000 C   0  0  0  0  0  4  0  0  0  0  0  0
    1.8157   -3.1471    0.0000 C   0  0  0  0  0  4  0  0  0  0  0  0
    0.0000   -2.6572    0.0000 C   0  0  0  0  0  4  0  0  0  0  0  0
    0.4899   -0.8415    0.0000 C   0  0  0  0  0  4  0  0  0  0  0  0
    5.7640   -1.9943    0.0000 C   0  0  0  0  0  4  0  0  0  0  0  0
  1  2  1  0  0  0  0 
  2  3  1  0  0  0  0 
  2  9  1  0  0  0  0 
  3  4  1  0  0  0  0 
  4  5  1  0  0  0  0 
  5  6  1  0  0  0  0 
  5  7  1  0  0  0  0 
  5  8  1  0  0  0  0 
M  END
> <CDK Fingerprint>
AIAAAAAAAAAAAAACAAAAAAAAAAAAAAAAgAAAAAAAAAAAAABgAIAAAAAAAAAAAAAYIAIAAAAAAAAAAAAAQAAAAAAAAAAAAAAAAAAAAAAAAAAAAAAAACAAQAAAEAAAAEAAAAAAAAAAAAAAAAAAAAAAAAAAAAAAAAAAAAAAAAAAAAA=

> <ActivityOutcome_CPDBAS_Rat>
inactive

$$$$

  CDK     0721101958

  4  4  0  0  0  0  0  0  0  0999 V2000
    0.0000   -0.6651    0.0000 C   0  0  0  0  0  4  0  0  0  0  0  0
    1.3302   -0.6651    0.0000 C   0  0  0  0  0  4  0  0  0  0  0  0
    2.4817    0.0000    0.0000 C   0  0  0  0  0  4  0  0  0  0  0  0
    2.4817   -1.3302    0.0000 O   0  0  0  0  0  2  0  0  0  0  0  0
  1  2  1  0  0  0  0 
  2  3  1  0  0  0  0 
  2  4  1  0  0  0  0 
  3  4  1  0  0  0  0 
M  END
> <CDK Fingerprint>
AgAAAAAAAAAAAAAAAIAAAAAAAAAAAAAAYAAAAAAAAAAAAAAAECACAAAAAAAAAAAAAEAAAAAAAAAAAAAAAAAAAAAAAAAAAAAAAAAAAAAAABAAAAAAAAAAAAAAAAAAAAAAAAAAAAAAAAAAAAAAAAAAAAAAAAAA

> <ActivityOutcome_CPDBAS_Rat>
active

> <TD50_Rat_mmol>
1.28

$$$$

  CDK     0721101958

 11 11  0  0  0  0  0  0  0  0999 V2000
    2.3019    0.0000    0.0000 O   0  0  0  0  0  2  0  0  0  0  0  0
    2.3019   -1.3272    0.0000 C   0  0  0  0  0  4  0  0  0  0  0  0
    3.4563   -1.9908    0.0000 C   0  0  0  0  0  4  0  0  0  0  0  0
    3.4563   -3.3250    0.0000 C   0  0  0  0  0  4  0  0  0  0  0  0
    2.3019   -3.9886    0.0000 N   0  0  0  0  0  3  0  0  0  0  0  0
    1.1544   -3.3250    0.0000 C   0  0  0  0  0  4  0  0  0  0  0  0
    0.0000   -3.9886    0.0000 S   0  0  0  0  0  2  0  0  0  0  0  0
    1.1544   -1.9908    0.0000 N   0  0  0  0  0  3  0  0  0  0  0  0
    4.6107   -3.9886    0.0000 C   0  0  0  0  0  4  0  0  0  0  0  0
    5.7582   -3.3250    0.0000 C   0  0  0  0  0  4  0  0  0  0  0  0
    6.9126   -3.9886    0.0000 C   0  0  0  0  0  4  0  0  0  0  0  0
  1  2  2  0  0  0  0 
  2  3  1  0  0  0  0 
  2  8  1  0  0  0  0 
  3  4  2  0  0  0  0 
  4  5  1  0  0  0  0 
  4  9  1  0  0  0  0 
  5  6  1  0  0  0  0 
  6  7  2  0  0  0  0 
  6  8  1  0  0  0  0 
  9 10  1  0  0  0  0 
 10 11  1  0  0  0  0 
M  END
> <CDK Fingerprint>
QUAgAAAAAAACEABIAAMQQAAAAAAABEAAAAAAAkAAAAACABFgAAAAgIACIAAAiABAIABAACEAEAoAACoAwAAAQIAAAAEFQABBAQAAAAAAAIAAAAAAIIhAAAAQAAAAEAQogABgQAABAAAAAgAgABAAACAAQAAE9IgAAEAJUAgCIAA=

> <ActivityOutcome_CPDBAS_Rat>
active

> <TD50_Rat_mmol>
0.0805

$$$$

  CDK     0721101958

 34 37  0  0  0  0  0  0  0  0999 V2000
    6.8454   -4.6108    0.0000 C   0  0  0  0  0  4  0  0  0  0  0  0
    5.7028   -3.9536    0.0000 C   0  0  0  0  0  4  0  0  0  0  0  0
    5.7028   -2.6189    0.0000 C   0  0  0  0  0  4  0  0  0  0  0  0
    4.5703   -1.9717    0.0000 C   0  0  0  0  0  4  0  0  0  0  0  0
    4.5703   -0.6471    0.0000 O   0  0  0  0  0  2  0  0  0  0  0  0
    3.4278   -2.6189    0.0000 N   0  0  0  0  0  3  0  0  0  0  0  0
    2.2852   -1.9717    0.0000 N   0  0  0  0  0  3  0  0  0  0  0  0
    1.1426   -2.6189    0.0000 C   0  0  0  0  0  4  0  0  0  0  0  0
    0.0000   -1.9717    0.0000 C   0  0  0  0  0  4  0  0  0  0  0  0
    6.8454   -1.9717    0.0000 C   0  0  0  0  0  4  0  0  0  0  0  0
    7.9880   -2.6189    0.0000 C   0  0  0  0  0  4  0  0  0  0  0  0
    7.9880   -3.9536    0.0000 C   0  0  0  0  0  4  0  0  0  0  0  0
    9.1306   -4.6108    0.0000 C   0  0  0  0  0  4  0  0  0  0  0  0
    9.1306   -5.9253    0.0000 C   0  0  0  0  0  4  0  0  0  0  0  0
    7.9880   -6.5825    0.0000 C   0  0  0  0  0  4  0  0  0  0  0  0
    6.8454   -5.9253    0.0000 C   0  0  0  0  0  4  0  0  0  0  0  0
    8.2610   -7.8768    0.0000 O   0  0  0  0  0  2  0  0  0  0  0  0
    9.5755   -8.0082    0.0000 C   0  0  0  0  0  4  0  0  0  0  0  0
   10.1114   -6.8151    0.0000 O   0  0  0  0  0  2  0  0  0  0  0  0
    9.1306   -1.9717    0.0000 O   0  0  0  0  0  2  0  0  0  0  0  0
    6.8454   -0.6471    0.0000 C   0  0  0  0  0  4  0  0  0  0  0  0
    7.9880    0.0000    0.0000 O   0  0  0  0  0  2  0  0  0  0  0  0
    4.5703   -4.6108    0.0000 C   0  0  0  0  0  4  0  0  0  0  0  0
    4.5703   -5.9253    0.0000 C   0  0  0  0  0  4  0  0  0  0  0  0
    3.4278   -6.5825    0.0000 C   0  0  0  0  0  4  0  0  0  0  0  0
    2.2852   -5.9253    0.0000 C   0  0  0  0  0  4  0  0  0  0  0  0
    2.2852   -4.6108    0.0000 C   0  0  0  0  0  4  0  0  0  0  0  0
    3.4278   -3.9536    0.0000 C   0  0  0  0  0  4  0  0  0  0  0  0
    1.1426   -3.9536    0.0000 O   0  0  0  0  0  2  0  0  0  0  0  0
    0.0000   -4.6108    0.0000 C   0  0  0  0  0  4  0  0  0  0  0  0
    0.8494   -5.9859    0.0000 O   0  0  0  0  0  2  0  0  0  0  0  0
    0.0000   -7.4117    0.0000 C   0  0  0  0  0  4  0  0  0  0  0  0
    3.4278   -7.9071    0.0000 O   0  0  0  0  0  2  0  0  0  0  0  0
    2.2852   -8.5643    0.0000 C   0  0  0  0  0  4  0  0  0  0  0  0
  1  2  1  0  0  0  0 
  1 12  2  0  0  0  0 
  1 16  1  0  0  0  0 
  2  3  1  0  0  0  0 
  2 23  1  1  0  0  0 
  3  4  1  1  0  0  0 
  3 10  1  0  0  0  0 
  4  5  2  0  0  0  0 
  4  6  1  0  0  0  0 
  6  7  1  0  0  0  0 
  7  8  1  0  0  0  0 
  8  9  1  0  0  0  0 
 10 11  1  0  0  0  0 
 10 21  1  6  0  0  0 
 11 12  1  0  0  0  0 
 11 20  1  1  0  0  0 
 12 13  1  0  0  0  0 
 13 14  2  0  0  0  0 
 14 15  1  0  0  0  0 
 14 19  1  0  0  0  0 
 15 16  2  0  0  0  0 
 15 17  1  0  0  0  0 
 17 18  1  0  0  0  0 
 18 19  1  0  0  0  0 
 21 22  1  0  0  0  0 
 23 24  2  0  0  0  0 
 23 28  1  0  0  0  0 
 24 25  1  0  0  0  0 
 25 26  2  0  0  0  0 
 25 33  1  0  0  0  0 
 26 27  1  0  0  0  0 
 26 31  1  0  0  0  0 
 27 28  2  0  0  0  0 
 27 29  1  0  0  0  0 
 29 30  1  0  0  0  0 
 31 32  1  0  0  0  0 
 33 34  1  0  0  0  0 
M  END
> <CDK Fingerprint>
AoAIKgQQAARCSSKWAIOAARCJAyIIIACg4gACEEIAAkiPJQJjBUBGgIsAHEBCIAKUIBTmIEEAQCBEASAgQGAFAhAXGBUAyhFCDBACJGIAcIBIEAkAyQCEAAiYEQUACoCAIEDK4kAhNGgTEAAGTDgMOaCBHOCEXjBVgAWgEQrrCQA=

> <ActivityOutcome_CPDBAS_Rat>
inactive

$$$$

  CDK     0721101958

 11 11  0  0  0  0  0  0  0  0999 V2000
    1.9925   -2.3037    0.0000 C   0  0  0  0  0  4  0  0  0  0  0  0
    2.6567   -1.1488    0.0000 C   0  0  0  0  0  4  0  0  0  0  0  0
    3.9910   -1.1488    0.0000 C   0  0  0  0  0  4  0  0  0  0  0  0
    4.6552   -2.3037    0.0000 C   0  0  0  0  0  4  0  0  0  0  0  0
    5.9835   -2.3037    0.0000 O   0  0  0  0  0  2  0  0  0  0  0  0
    3.9910   -3.4525    0.0000 C   0  0  0  0  0  4  0  0  0  0  0  0
    2.6567   -3.4525    0.0000 C   0  0  0  0  0  4  0  0  0  0  0  0
    4.6552    0.0000    0.0000 O   0  0  0  0  0  2  0  0  0  0  0  0
    0.6642   -2.3037    0.0000 C   0  0  0  0  0  4  0  0  0  0  0  0
    0.0000   -3.4525    0.0000 O   0  0  0  0  0  2  0  0  0  0  0  0
    0.0000   -1.1488    0.0000 O   0  0  0  0  0  2  0  0  0  0  0  0
  1  2  2  0  0  0  0 
  1  7  1  0  0  0  0 
  1  9  1  0  0  0  0 
  2  3  1  0  0  0  0 
  3  4  2  0  0  0  0 
  3  8  1  0  0  0  0 
  4  5  1  0  0  0  0 
  4  6  1  0  0  0  0 
  6  7  2  0  0  0  0 
  9 10  1  0  0  0  0 
  9 11  2  0  0  0  0 
M  END
> <CDK Fingerprint>
AIACAAAAAAAAAAAAAAAAAAAAAAAARACAAAJpAAAAhIAAAAAAAAAAIAQAIAAAACBAAAAAAAAAAAAEAAAAAAACAAAAAAAAAIAAEAAAAAAAAACAEAAAAIAAIABIAEAgJAABAAACQAAACACAAACAUAhAAAEAAAAAAAA=

> <ActivityOutcome_CPDBAS_Rat>
inactive

$$$$

  CDK     0721101958

 19 21  0  0  0  0  0  0  0  0999 V2000
    4.6079   -3.3329    0.0000 C   0  0  0  0  0  4  0  0  0  0  0  0
    4.6079   -2.0013    0.0000 C   0  0  0  0  0  4  0  0  0  0  0  0
    3.4620   -3.9865    0.0000 C   0  0  0  0  0  4  0  0  0  0  0  0
    3.4620   -1.3315    0.0000 C   0  0  0  0  0  4  0  0  0  0  0  0
    2.3080   -3.3329    0.0000 C   0  0  0  0  0  4  0  0  0  0  0  0
    2.3080   -2.0013    0.0000 C   0  0  0  0  0  4  0  0  0  0  0  0
    5.7458   -3.9865    0.0000 C   0  0  0  0  0  4  0  0  0  0  0  0
    5.7458   -1.3315    0.0000 C   0  0  0  0  0  4  0  0  0  0  0  0
    6.8998   -3.3329    0.0000 C   0  0  0  0  0  4  0  0  0  0  0  0
    6.8998   -2.0013    0.0000 C   0  0  0  0  0  4  0  0  0  0  0  0
    3.4620    0.0000    0.0000 O   0  0  0  0  0  2  0  0  0  0  0  0
    3.4620   -5.3181    0.0000 O   0  0  0  0  0  2  0  0  0  0  0  0
    5.7458   -5.3181    0.0000 O   0  0  0  0  0  2  0  0  0  0  0  0
    5.7458    0.0000    0.0000 O   0  0  0  0  0  2  0  0  0  0  0  0
    8.0699   -1.3154    0.0000 O   0  0  0  0  0  2  0  0  0  0  0  0
    1.1540   -3.9865    0.0000 C   0  0  0  0  0  4  0  0  0  0  0  0
    1.1540   -1.3315    0.0000 C   0  0  0  0  0  4  0  0  0  0  0  0
    0.0000   -2.0013    0.0000 C   0  0  0  0  0  4  0  0  0  0  0  0
    0.0000   -3.3329    0.0000 C   0  0  0  0  0  4  0  0  0  0  0  0
  1  2  2  0  0  0  0 
  1  3  1  0  0  0  0 
  1  7  1  0  0  0  0 
  2  4  1  0  0  0  0 
  2  8  1  0  0  0  0 
  3  5  1  0  0  0  0 
  3 12  2  0  0  0  0 
  4 11  2  0  0  0  0 
  4  6  1  0  0  0  0 
  5  6  2  0  0  0  0 
  5 16  1  0  0  0  0 
  6 17  1  0  0  0  0 
  7  9  2  0  0  0  0 
  7 13  1  0  0  0  0 
  8 14  1  0  0  0  0 
  8 10  2  0  0  0  0 
  9 10  1  0  0  0  0 
 10 15  1  0  0  0  0 
 16 19  2  0  0  0  0 
 17 18  2  0  0  0  0 
 18 19  1  0  0  0  0 
M  END
> <CDK Fingerprint>
CAAAAAAAAYGCAIgAABABACAAAAAAAAAAAAAARAh4AAJpAQBDhIoAAAFCAAEAIAQEIAABAABAAQIQQAAAAAQGCAAABABDCAAAIAAAYoAIEQAAwACAAACAAAAACIAAIABKAEAgIAACAAAGQCAEECAAFACAEAhBKAAAAAAAAAA=

> <ActivityOutcome_CPDBAS_Rat>
active

> <TD50_Rat_mmol>
2.65

$$$$

  CDK     0721101958

  9  9  0  0  0  0  0  0  0  0999 V2000
    0.0000   -2.3037    0.0000 N   0  0  0  0  0  3  0  0  0  0  0  0
    0.6655   -1.1542    0.0000 C   0  0  0  0  0  4  0  0  0  0  0  0
    0.0000    0.0000    0.0000 O   0  0  0  0  0  2  0  0  0  0  0  0
    1.9965   -1.1542    0.0000 C   0  0  0  0  0  4  0  0  0  0  0  0
    2.6574    0.0000    0.0000 N   0  0  0  0  0  3  0  0  0  0  0  0
    3.9884    0.0000    0.0000 C   0  0  0  0  0  4  0  0  0  0  0  0
    4.6539   -1.1542    0.0000 C   0  0  0  0  0  4  0  0  0  0  0  0
    3.9884   -2.3037    0.0000 N   0  0  0  0  0  3  0  0  0  0  0  0
    2.6574   -2.3037    0.0000 C   0  0  0  0  0  4  0  0  0  0  0  0
  1  2  1  0  0  0  0 
  2  3  2  0  0  0  0 
  2  4  1  0  0  0  0 
  4  5  2  0  0  0  0 
  4  9  1  0  0  0  0 
  5  6  1  0  0  0  0 
  6  7  2  0  0  0  0 
  7  8  1  0  0  0  0 
  8  9  2  0  0  0  0 
M  END
> <CDK Fingerprint>
AgCAAgEDAIAgAABAAAAAAAAAAAAAAAAAAAAAAAQAAAhgAEACAIAAAAAAACAJIAAIAAAAAABAAAAAAAAAAAEEIQAEAEAAAAEAAAAAAAACAAAAAAAAAAAgAAAgAIAAAABAMAAAgAAAQAAAAAAAAAAAACAAUABAAAAAAoCCAAA=

> <ActivityOutcome_CPDBAS_Rat>
inactive

$$$$

  CDK     0721101958

  6  6  0  0  0  0  0  0  0  0999 V2000
    2.3036   -1.9950    0.0000 N   0  0  0  0  0  3  0  0  0  0  0  0
    1.1518   -2.6600    0.0000 C   0  0  0  0  0  4  0  0  0  0  0  0
    0.0000   -1.9950    0.0000 C   0  0  0  0  0  4  0  0  0  0  0  0
    0.0000   -0.6650    0.0000 C   0  0  0  0  0  4  0  0  0  0  0  0
    1.1518    0.0000    0.0000 C   0  0  0  0  0  4  0  0  0  0  0  0
    2.3036   -0.6650    0.0000 C   0  0  0  0  0  4  0  0  0  0  0  0
  1  2  2  0  0  0  0 
  1  6  1  0  0  0  0 
  2  3  1  0  0  0  0 
  3  4  2  0  0  0  0 
  4  5  1  0  0  0  0 
  5  6  2  0  0  0  0 
M  END
> <CDK Fingerprint>
AgCQAgAAAAAMAAAAAAAAAAAAAAAAAAAAAAAACAAAAABgAAAAAAAAAAAAAAAIAAAAAAAAAABAAAAAAAAAAAEAAAAAAAAAAAAAAAAAAAAAgAAAAAAAAAAAIAAAAAAAIAAAAAAgAAAAAAAAAAAAAAAAAACAAAAAAAAAAAAAAAA=

> <ActivityOutcome_CPDBAS_Rat>
active

> <TD50_Rat_mmol>
0.851

$$$$

  CDK     0721101958

 17 18  0  0  0  0  0  0  0  0999 V2000
    4.6046    0.0000    0.0000 N   0  0  0  0  0  3  0  0  0  0  0  0
    3.4595   -0.6613    0.0000 C   0  0  0  0  0  4  0  0  0  0  0  0
    3.4595   -1.9918    0.0000 C   0  0  0  0  0  4  0  0  0  0  0  0
    2.3063   -2.6611    0.0000 C   0  0  0  0  0  4  0  0  0  0  0  0
    1.1532   -1.9918    0.0000 N   0  0  0  0  0  3  0  0  0  0  0  0
    1.1532   -0.6613    0.0000 C   0  0  0  0  0  4  0  0  0  0  0  0
    2.3063    0.0000    0.0000 N   0  0  0  0  0  3  0  0  0  0  0  0
    0.0000    0.0000    0.0000 N   0  0  0  0  0  3  0  0  0  0  0  0
    2.3063   -3.9917    0.0000 C   0  0  0  0  0  4  0  0  0  0  0  0
    1.1532   -4.6530    0.0000 C   0  0  0  0  0  4  0  0  0  0  0  0
    4.6046   -2.6611    0.0000 C   0  0  0  0  0  4  0  0  0  0  0  0
    5.7578   -1.9918    0.0000 C   0  0  0  0  0  4  0  0  0  0  0  0
    6.9109   -2.6611    0.0000 C   0  0  0  0  0  4  0  0  0  0  0  0
    6.9109   -3.9917    0.0000 C   0  0  0  0  0  4  0  0  0  0  0  0
    5.7578   -4.6530    0.0000 C   0  0  0  0  0  4  0  0  0  0  0  0
    4.6046   -3.9917    0.0000 C   0  0  0  0  0  4  0  0  0  0  0  0
    8.0641   -4.6530    0.0000 Cl  0  0  0  0  0  1  0  0  0  0  0  0
  1  2  1  0  0  0  0 
  2  3  2  0  0  0  0 
  2  7  1  0  0  0  0 
  3  4  1  0  0  0  0 
  3 11  1  0  0  0  0 
  4  5  2  0  0  0  0 
  4  9  1  0  0  0  0 
  5  6  1  0  0  0  0 
  6  7  2  0  0  0  0 
  6  8  1  0  0  0  0 
  9 10  1  0  0  0  0 
 11 12  2  0  0  0  0 
 11 16  1  0  0  0  0 
 12 13  1  0  0  0  0 
 13 14  2  0  0  0  0 
 14 15  1  0  0  0  0 
 14 17  1  0  0  0  0 
 15 16  2  0  0  0  0 
M  END
> <CDK Fingerprint>
ASAAAhiAYgUgoIIIAgCAASAKQAAAAAAAAgAAAAMECAAAAADgEAAQAEEAAAAQEEIAYAAYAgAIgABCEAAAQAAAAYEEAEEEIEAAAERGAAAAEAAAAACAgCGAACWBEgAAAIiAIAEBAsRiJBRAAEECYAEBAAAGFACAARgiEAgYQAACgQI=

> <ActivityOutcome_CPDBAS_Rat>
inactive

$$$$

  CDK     0721101958

 22 24  0  0  0  0  0  0  0  0999 V2000
    4.6008    0.0000    0.0000 O   0  0  0  0  0  2  0  0  0  0  0  0
    4.6008   -1.3264    0.0000 C   0  0  0  0  0  4  0  0  0  0  0  0
    3.4506   -1.9895    0.0000 C   0  0  0  0  0  4  0  0  0  0  0  0
    3.4506   -3.3159    0.0000 C   0  0  0  0  0  4  0  0  0  0  0  0
    2.3004   -3.9894    0.0000 C   0  0  0  0  0  4  0  0  0  0  0  0
    1.1502   -3.3159    0.0000 C   0  0  0  0  0  4  0  0  0  0  0  0
    1.1502   -1.9895    0.0000 C   0  0  0  0  0  4  0  0  0  0  0  0
    2.3004   -1.3264    0.0000 C   0  0  0  0  0  4  0  0  0  0  0  0
    2.3004    0.0000    0.0000 O   0  0  0  0  0  2  0  0  0  0  0  0
    0.0000   -3.9894    0.0000 O   0  0  0  0  0  2  0  0  0  0  0  0
    4.6008   -3.9894    0.0000 O   0  0  0  0  0  2  0  0  0  0  0  0
    5.7614   -3.3159    0.0000 C   0  0  0  0  0  4  0  0  0  0  0  0
    5.7614   -1.9895    0.0000 C   0  0  0  0  0  4  0  0  0  0  0  0
    6.9115   -1.3264    0.0000 O   0  0  0  0  0  2  0  0  0  0  0  0
    6.9115   -3.9894    0.0000 C   0  0  0  0  0  4  0  0  0  0  0  0
    8.0617   -3.3159    0.0000 C   0  0  0  0  0  4  0  0  0  0  0  0
    9.2119   -3.9894    0.0000 C   0  0  0  0  0  4  0  0  0  0  0  0
    9.2119   -5.3158    0.0000 C   0  0  0  0  0  4  0  0  0  0  0  0
    8.0617   -5.9790    0.0000 C   0  0  0  0  0  4  0  0  0  0  0  0
    6.9115   -5.3158    0.0000 C   0  0  0  0  0  4  0  0  0  0  0  0
   10.3621   -5.9790    0.0000 O   0  0  0  0  0  2  0  0  0  0  0  0
   10.3621   -3.3159    0.0000 O   0  0  0  0  0  2  0  0  0  0  0  0
  1  2  2  0  0  0  0 
  2  3  1  0  0  0  0 
  2 13  1  0  0  0  0 
  3  4  2  0  0  0  0 
  3  8  1  0  0  0  0 
  4  5  1  0  0  0  0 
  4 11  1  0  0  0  0 
  5  6  2  0  0  0  0 
  6  7  1  0  0  0  0 
  6 10  1  0  0  0  0 
  7  8  2  0  0  0  0 
  8  9  1  0  0  0  0 
 11 12  1  0  0  0  0 
 12 13  2  0  0  0  0 
 12 15  1  0  0  0  0 
 13 14  1  0  0  0  0 
 15 16  2  0  0  0  0 
 15 20  1  0  0  0  0 
 16 17  1  0  0  0  0 
 17 18  2  0  0  0  0 
 17 22  1  0  0  0  0 
 18 19  1  0  0  0  0 
 18 21  1  0  0  0  0 
 19 20  2  0  0  0  0 
M  END
> <CDK Fingerprint>
QkICAZAAQAUAAIACAjAQVRCBoABQjCBAgARMkCEIQBDqoIJpAEQCjIgIAkhgEAAQIBZEIEiAGCBICQAI4EgEAhgPmAklwggTCSAABBIoBIEAFsRIAAUIAliAcAAAAsICIIBKCNAgbSBBCBCGTEgMCsKIPVCEMghAaQNAICAiQBE=

> <ActivityOutcome_CPDBAS_Rat>
active

> <TD50_Rat_mmol>
0.0334

$$$$

  CDK     0721101958

 10 10  0  0  0  0  0  0  0  0999 V2000
    0.0000   -2.3021    0.0000 O   0  0  0  0  0  2  0  0  0  0  0  0
    0.6654   -1.1511    0.0000 N   0  0  0  0  0  3  0  0  0  0  0  0
    1.9961   -1.1511    0.0000 C   0  0  0  0  0  4  0  0  0  0  0  0
    2.6614    0.0000    0.0000 C   0  0  0  0  0  4  0  0  0  0  0  0
    3.9921    0.0000    0.0000 C   0  0  0  0  0  4  0  0  0  0  0  0
    4.6575   -1.1511    0.0000 C   0  0  0  0  0  4  0  0  0  0  0  0
    5.9882   -1.1511    0.0000 N   0  0  0  0  0  3  0  0  0  0  0  0
    6.6535   -2.3021    0.0000 O   0  0  0  0  0  2  0  0  0  0  0  0
    3.9921   -2.3021    0.0000 C   0  0  0  0  0  4  0  0  0  0  0  0
    2.6614   -2.3021    0.0000 C   0  0  0  0  0  4  0  0  0  0  0  0
  1  2  1  0  0  0  0 
  2  3  2  0  0  0  0 
  3  4  1  0  0  0  0 
  3 10  1  0  0  0  0 
  4  5  2  0  0  0  0 
  5  6  1  0  0  0  0 
  6  7  2  0  0  0  0 
  6  9  1  0  0  0  0 
  7  8  1  0  0  0  0 
  9 10  2  0  0  0  0 
M  END
> <CDK Fingerprint>
QAAAAABAAAgAAQgAAAAAAAAAAIAEAAAABAAAAAAAAAAAAGAAAAAAAAAAgAAAAAAgIAAAAAAQAAAAAAJAAAAAAAQAAAQAAAAAAAAAIAAAAAAAAQABAAAAAAAAAAAAAAABAAAAAAIAAAAAAAAAAICAAAAAAgAACAAAAAAAACAAAA==

> <ActivityOutcome_CPDBAS_Rat>
active

> <TD50_Rat_mmol>
0.767

$$$$

  CDK     0721101958

 23 25  0  0  0  0  0  0  0  0999 V2000
    4.6031    0.0000    0.0000 O   0  0  0  0  0  2  0  0  0  0  0  0
    3.4523   -0.6635    0.0000 C   0  0  0  0  0  4  0  0  0  0  0  0
    2.3015    0.0000    0.0000 C   0  0  0  0  0  4  0  0  0  0  0  0
    1.1508   -0.6635    0.0000 C   0  0  0  0  0  4  0  0  0  0  0  0
    1.1508   -1.9905    0.0000 C   0  0  0  0  0  4  0  0  0  0  0  0
    2.3015   -2.6644    0.0000 C   0  0  0  0  0  4  0  0  0  0  0  0
    3.4523   -1.9905    0.0000 C   0  0  0  0  0  4  0  0  0  0  0  0
    4.6031   -2.6644    0.0000 N   0  0  0  0  0  3  0  0  0  0  0  0
    5.7642   -1.9905    0.0000 N   0  0  0  0  0  3  0  0  0  0  0  0
    6.9150   -2.6644    0.0000 C   0  0  0  0  0  4  0  0  0  0  0  0
    8.0658   -1.9905    0.0000 C   0  0  0  0  0  4  0  0  0  0  0  0
    9.2165   -2.6644    0.0000 C   0  0  0  0  0  4  0  0  0  0  0  0
    9.2165   -3.9914    0.0000 C   0  0  0  0  0  4  0  0  0  0  0  0
    8.0658   -4.6549    0.0000 C   0  0  0  0  0  4  0  0  0  0  0  0
    6.9150   -3.9914    0.0000 C   0  0  0  0  0  4  0  0  0  0  0  0
   10.3673   -4.6549    0.0000 C   0  0  0  0  0  4  0  0  0  0  0  0
    8.0658   -0.6635    0.0000 N   0  0  0  0  0  4  0  0  0  0  0  0
    6.9150    0.0000    0.0000 O   0  0  0  0  0  2  0  0  0  0  0  0
    9.2165    0.0000    0.0000 O   0  0  0  0  0  1  0  0  0  0  0  0
    2.3015   -3.9914    0.0000 C   0  0  0  0  0  4  0  0  0  0  0  0
    1.1508   -4.6549    0.0000 C   0  0  0  0  0  4  0  0  0  0  0  0
    0.0000   -3.9914    0.0000 C   0  0  0  0  0  4  0  0  0  0  0  0
    0.0000   -2.6644    0.0000 C   0  0  0  0  0  4  0  0  0  0  0  0
  1  2  1  0  0  0  0 
  2  3  2  0  0  0  0 
  2  7  1  0  0  0  0 
  3  4  1  0  0  0  0 
  4  5  2  0  0  0  0 
  5  6  1  0  0  0  0 
  5 23  1  0  0  0  0 
  6  7  2  0  0  0  0 
  6 20  1  0  0  0  0 
  7  8  1  0  0  0  0 
  8  9  2  0  0  0  0 
  9 10  1  0  0  0  0 
 10 11  2  0  0  0  0 
 10 15  1  0  0  0  0 
 11 12  1  0  0  0  0 
 11 17  1  0  0  0  0 
 12 13  2  0  0  0  0 
 13 14  1  0  0  0  0 
 13 16  1  0  0  0  0 
 14 15  2  0  0  0  0 
 17 18  2  0  0  0  0 
 17 19  1  0  0  0  0 
 20 21  2  0  0  0  0 
 21 22  1  0  0  0  0 
 22 23  2  0  0  0  0 
M  CHG  1  17   1
M  CHG  1  19  -1
M  END
> <CDK Fingerprint>
QAAAABACQAAoAIAKCAAQAYIIAAABABhBAABgCAAEAAYBAAJpEUQAAAAAAEAgAIAAIAAQIAIAAABCBAACCIAAEBCMAAIQAJAAoIAAAQAAgIEAAIAAAAAgAIDgAAAAEIQAIAAEgEAgKAAgQCACQIAACADAAACAAgIAYAAQACAjMAA=

> <ActivityOutcome_CPDBAS_Rat>
active

> <TD50_Rat_mmol>
3.81

$$$$

  CDK     0721101958

 36 39  0  0  0  0  0  0  0  0999 V2000
    1.9965   -6.9158    0.0000 O   0  0  0  0  0  1  0  0  0  0  0  0
    1.3257   -5.7658    0.0000 N   0  0  0  0  0  4  0  0  0  0  0  0
    0.0000   -5.7658    0.0000 O   0  0  0  0  0  2  0  0  0  0  0  0
    1.9965   -4.5999    0.0000 C   0  0  0  0  0  4  0  0  0  0  0  0
    1.3257   -3.4499    0.0000 C   0  0  0  0  0  4  0  0  0  0  0  0
    1.9965   -2.2999    0.0000 C   0  0  0  0  0  4  0  0  0  0  0  0
    3.3221   -2.2999    0.0000 C   0  0  0  0  0  4  0  0  0  0  0  0
    3.3221   -4.5999    0.0000 C   0  0  0  0  0  4  0  0  0  0  0  0
    3.9930   -3.4499    0.0000 C   0  0  0  0  0  4  0  0  0  0  0  0
    5.3186   -3.4499    0.0000 N   0  0  0  0  0  3  0  0  0  0  0  0
    5.9894   -2.2999    0.0000 C   0  0  0  0  0  4  0  0  0  0  0  0
    5.3186   -1.1500    0.0000 O   0  0  0  0  0  2  0  0  0  0  0  0
    7.3151   -2.2999    0.0000 C   0  0  0  0  0  4  0  0  0  0  0  0
    7.9859   -1.1500    0.0000 C   0  0  0  0  0  4  0  0  0  0  0  0
    9.3116   -1.1500    0.0000 C   0  0  0  0  0  4  0  0  0  0  0  0
    9.9824    0.0000    0.0000 C   0  0  0  0  0  4  0  0  0  0  0  0
   11.3080    0.0000    0.0000 C   0  0  0  0  0  4  0  0  0  0  0  0
   11.9789   -1.1500    0.0000 C   0  0  0  0  0  4  0  0  0  0  0  0
    9.9824   -2.2999    0.0000 C   0  0  0  0  0  4  0  0  0  0  0  0
   11.3080   -2.2999    0.0000 C   0  0  0  0  0  4  0  0  0  0  0  0
    7.9859   -3.4499    0.0000 C   0  0  0  0  0  4  0  0  0  0  0  0
    7.3151   -4.5999    0.0000 O   0  0  0  0  0  2  0  0  0  0  0  0
    9.3116   -3.4499    0.0000 C   0  0  0  0  0  4  0  0  0  0  0  0
    9.9824   -4.5999    0.0000 N   0  0  0  0  0  3  0  0  0  0  0  0
   11.3080   -4.5999    0.0000 N   0  0  0  0  0  3  0  0  0  0  0  0
   11.9789   -5.7658    0.0000 C   0  0  0  0  0  4  0  0  0  0  0  0
   13.3045   -5.7658    0.0000 C   0  0  0  0  0  4  0  0  0  0  0  0
   13.9753   -6.9158    0.0000 C   0  0  0  0  0  4  0  0  0  0  0  0
   13.3045   -8.0658    0.0000 C   0  0  0  0  0  4  0  0  0  0  0  0
   15.3010   -6.9158    0.0000 N   0  0  0  0  0  4  0  0  0  0  0  0
   15.9718   -8.0658    0.0000 O   0  0  0  0  0  1  0  0  0  0  0  0
   15.9718   -5.7658    0.0000 O   0  0  0  0  0  2  0  0  0  0  0  0
   11.3080   -6.9158    0.0000 C   0  0  0  0  0  4  0  0  0  0  0  0
    9.9824   -6.9158    0.0000 O   0  0  0  0  0  2  0  0  0  0  0  0
    9.3116   -8.0658    0.0000 C   0  0  0  0  0  4  0  0  0  0  0  0
   11.9789   -8.0658    0.0000 C   0  0  0  0  0  4  0  0  0  0  0  0
  1  2  1  0  0  0  0 
  2  3  2  0  0  0  0 
  2  4  1  0  0  0  0 
  4  5  2  0  0  0  0 
  4  8  1  0  0  0  0 
  5  6  1  0  0  0  0 
  6  7  2  0  0  0  0 
  7  9  1  0  0  0  0 
  8  9  2  0  0  0  0 
  9 10  1  0  0  0  0 
 10 11  1  0  0  0  0 
 11 12  2  0  0  0  0 
 11 13  1  0  0  0  0 
 13 14  2  0  0  0  0 
 13 21  1  0  0  0  0 
 14 15  1  0  0  0  0 
 15 16  2  0  0  0  0 
 15 19  1  0  0  0  0 
 16 17  1  0  0  0  0 
 17 18  2  0  0  0  0 
 18 20  1  0  0  0  0 
 19 20  2  0  0  0  0 
 19 23  1  0  0  0  0 
 21 22  1  0  0  0  0 
 21 23  2  0  0  0  0 
 23 24  1  0  0  0  0 
 24 25  2  0  0  0  0 
 25 26  1  0  0  0  0 
 26 27  2  0  0  0  0 
 26 33  1  0  0  0  0 
 27 28  1  0  0  0  0 
 28 29  2  0  0  0  0 
 28 30  1  0  0  0  0 
 29 36  1  0  0  0  0 
 30 31  1  0  0  0  0 
 30 32  2  0  0  0  0 
 33 34  1  0  0  0  0 
 33 36  2  0  0  0  0 
 34 35  1  0  0  0  0 
M  CHG  1   1  -1
M  CHG  1   2   1
M  CHG  1  30   1
M  CHG  1  31  -1
M  END
> <CDK Fingerprint>
QAAARBICQHBiAIAKSDKoBQIoQIABgBlIqYBBCQAEzSZACAJpEQQIBAAiAAAEgMCAIAAUJgIAAgBCBkCAqMQoEsAOkKYAgMEB+IAABQSIgrEACwgAIAAgQBfgAAAAEJEAIABEAEAgKCAgQCACYIgAGEhAoiSAUgpwaIAQCAAzEAA=

> <ActivityOutcome_CPDBAS_Rat>
inactive

$$$$

  CDK     0721101958

 14 14  0  0  0  0  0  0  0  0999 V2000
    1.9969   -3.4548    0.0000 C   0  0  0  0  0  4  0  0  0  0  0  0
    2.6602   -4.6087    0.0000 C   0  0  0  0  0  4  0  0  0  0  0  0
    1.9969   -5.7557    0.0000 C   0  0  0  0  0  4  0  0  0  0  0  0
    0.6633   -5.7557    0.0000 C   0  0  0  0  0  4  0  0  0  0  0  0
    0.0000   -6.9096    0.0000 N   0  0  0  0  0  3  0  0  0  0  0  0
    0.0000   -4.6087    0.0000 C   0  0  0  0  0  4  0  0  0  0  0  0
    0.6633   -3.4548    0.0000 C   0  0  0  0  0  4  0  0  0  0  0  0
    3.9868   -4.6087    0.0000 N   0  0  0  0  0  4  0  0  0  0  0  0
    4.6571   -3.4548    0.0000 O   0  0  0  0  0  2  0  0  0  0  0  0
    4.6571   -5.7557    0.0000 O   0  0  0  0  0  1  0  0  0  0  0  0
    2.6602   -2.3009    0.0000 N   0  0  0  0  0  3  0  0  0  0  0  0
    1.9969   -1.1539    0.0000 C   0  0  0  0  0  4  0  0  0  0  0  0
    0.6633   -1.1539    0.0000 C   0  0  0  0  0  4  0  0  0  0  0  0
    0.0000    0.0000    0.0000 O   0  0  0  0  0  2  0  0  0  0  0  0
  1  2  2  0  0  0  0 
  1  7  1  0  0  0  0 
  1 11  1  0  0  0  0 
  2  3  1  0  0  0  0 
  2  8  1  0  0  0  0 
  3  4  2  0  0  0  0 
  4  5  1  0  0  0  0 
  4  6  1  0  0  0  0 
  6  7  2  0  0  0  0 
  8  9  2  0  0  0  0 
  8 10  1  0  0  0  0 
 11 12  1  0  0  0  0 
 12 13  1  0  0  0  0 
 13 14  1  0  0  0  0 
M  CHG  1   8   1
M  CHG  1  10  -1
M  END
> <CDK Fingerprint>
EAMAACoAgAoAAAAEAAgAAAAAOEARAAACAARABgAAAGABBAAAAAAAACAAAIggAAQAAgCCAEIEAADABAAAQAAAABAAQAAAAAAAEIiAkAAAAEAAACAEAAAQVAAQAAAgABQAACAAAABAIAIAAAAAAAAAAIAAABAAgEAAAAKwiA==

> <ActivityOutcome_CPDBAS_Rat>
inactive

$$$$

  CDK     0721101958

 44 49  0  0  0  0  0  0  0  0999 V2000
    5.4267   -2.0763    0.0000 C   0  0  0  0  0  4  0  0  0  0  0  0
    4.4043   -2.6268    0.0000 N   0  0  0  0  0  3  0  0  0  0  0  0
    5.4267   -0.7236    0.0000 C   0  0  0  0  0  4  0  0  0  0  0  0
    7.7075   -6.0402    0.0000 C   0  0  0  0  0  4  0  0  0  0  0  0
    7.7075   -4.7346    0.0000 C   0  0  0  0  0  4  0  0  0  0  0  0
    6.5750   -2.7370    0.0000 C   0  0  0  0  0  4  0  0  0  0  0  0
    7.7075   -2.0763    0.0000 N   0  0  0  0  0  3  0  0  0  0  0  0
    3.3504   -1.9347    0.0000 C   0  0  0  0  0  4  0  0  0  0  0  0
    3.3504   -0.7236    0.0000 C   0  0  0  0  0  4  0  0  0  0  0  0
    8.8401   -4.0582    0.0000 C   0  0  0  0  0  4  0  0  0  0  0  0
   10.0040   -6.0402    0.0000 C   0  0  0  0  0  4  0  0  0  0  0  0
   12.2848   -6.0244    0.0000 C   0  0  0  0  0  4  0  0  0  0  0  0
    6.5750   -4.0582    0.0000 C   0  0  0  0  0  4  0  0  0  0  0  0
    8.8401   -6.7008    0.0000 C   0  0  0  0  0  4  0  0  0  0  0  0
   12.2848   -4.7032    0.0000 C   0  0  0  0  0  4  0  0  0  0  0  0
   12.2848   -2.0449    0.0000 C   0  0  0  0  0  4  0  0  0  0  0  0
    6.5750   -6.7323    0.0000 C   0  0  0  0  0  4  0  0  0  0  0  0
   11.1366   -6.7008    0.0000 O   0  0  0  0  0  2  0  0  0  0  0  0
    8.8401   -2.7370    0.0000 C   0  0  0  0  0  4  0  0  0  0  0  0
   11.1208   -2.7055    0.0000 C   0  0  0  0  0  4  0  0  0  0  0  0
   13.4331   -2.7055    0.0000 C   0  0  0  0  0  4  0  0  0  0  0  0
   10.0040   -4.7346    0.0000 C   0  0  0  0  0  4  0  0  0  0  0  0
    6.5750   -0.0629    0.0000 C   0  0  0  0  0  4  0  0  0  0  0  0
   11.1208   -4.0268    0.0000 C   0  0  0  0  0  4  0  0  0  0  0  0
   13.4331   -4.0268    0.0000 C   0  0  0  0  0  4  0  0  0  0  0  0
    2.2021   -2.6740    0.0000 C   0  0  0  0  0  4  0  0  0  0  0  0
    2.2021    0.0000    0.0000 C   0  0  0  0  0  4  0  0  0  0  0  0
    7.7075   -0.7236    0.0000 C   0  0  0  0  0  4  0  0  0  0  0  0
   13.4331   -6.6851    0.0000 O   0  0  0  0  0  2  0  0  0  0  0  0
    5.4267   -6.0716    0.0000 O   0  0  0  0  0  2  0  0  0  0  0  0
    1.0853   -2.0134    0.0000 C   0  0  0  0  0  4  0  0  0  0  0  0
   12.2848   -0.7078    0.0000 O   0  0  0  0  0  2  0  0  0  0  0  0
    1.0853   -0.6606    0.0000 C   0  0  0  0  0  4  0  0  0  0  0  0
    8.8401   -8.0378    0.0000 O   0  0  0  0  0  2  0  0  0  0  0  0
    6.5750   -8.0378    0.0000 O   0  0  0  0  0  2  0  0  0  0  0  0
    9.9726   -2.0449    0.0000 O   0  0  0  0  0  2  0  0  0  0  0  0
   14.5814   -2.0449    0.0000 O   0  0  0  0  0  2  0  0  0  0  0  0
    0.0000   -2.7684    0.0000 O   0  0  0  0  0  2  0  0  0  0  0  0
   13.4331   -0.0315    0.0000 C   0  0  0  0  0  4  0  0  0  0  0  0
   10.0040   -8.7142    0.0000 C   0  0  0  0  0  4  0  0  0  0  0  0
    9.9726   -0.7078    0.0000 C   0  0  0  0  0  4  0  0  0  0  0  0
   15.7296   -2.7055    0.0000 C   0  0  0  0  0  4  0  0  0  0  0  0
    7.7075   -8.7142    0.0000 C   0  0  0  0  0  4  0  0  0  0  0  0
    0.0000   -4.1212    0.0000 C   0  0  0  0  0  4  0  0  0  0  0  0
  1  2  1  0  0  0  0 
  1  3  2  0  0  0  0 
  1  6  1  0  0  0  0 
  2  8  1  0  0  0  0 
  3  9  1  0  0  0  0 
  3 23  1  0  0  0  0 
  4  5  1  0  0  0  0 
  4 14  1  0  0  0  0 
  4 17  1  1  0  0  0 
  5 13  1  0  0  0  0 
  5 10  1  0  0  0  0 
  6  7  1  0  0  0  0 
  6 13  1  0  0  0  0 
  7 19  1  0  0  0  0 
  7 28  1  0  0  0  0 
  8 26  1  0  0  0  0 
  8  9  2  0  0  0  0 
  9 27  1  0  0  0  0 
 10 22  1  0  0  0  0 
 10 19  1  0  0  0  0 
 11 22  1  0  0  0  0 
 11 18  1  1  0  0  0 
 11 14  1  0  0  0  0 
 12 18  1  0  0  0  0 
 12 15  1  0  0  0  0 
 12 29  2  0  0  0  0 
 14 34  1  6  0  0  0 
 15 24  2  0  0  0  0 
 15 25  1  0  0  0  0 
 16 21  1  0  0  0  0 
 16 32  1  0  0  0  0 
 16 20  2  0  0  0  0 
 17 30  2  0  0  0  0 
 17 35  1  0  0  0  0 
 20 24  1  0  0  0  0 
 20 36  1  0  0  0  0 
 21 25  2  0  0  0  0 
 21 37  1  0  0  0  0 
 23 28  1  0  0  0  0 
 26 31  2  0  0  0  0 
 27 33  2  0  0  0  0 
 31 38  1  0  0  0  0 
 31 33  1  0  0  0  0 
 32 39  1  0  0  0  0 
 34 40  1  0  0  0  0 
 35 43  1  0  0  0  0 
 36 41  1  0  0  0  0 
 37 42  1  0  0  0  0 
 38 44  1  0  0  0  0 
M  END
> <CDK Fingerprint>
AIKglC9rkCeBbruCvhfB/ksQfQIQDEAICMADIiGgItwsv1ELe5Ok25SJpIBJOJwEWCGWO6QMikBgTMDRa8D0CKARLx0IDIKEQgR9F1TiAGGIDZMRw6CgzsgZl7AkGSzKiCpByGNGbWyhQTgqL0EaBCn4kz6slVY85kjnBCamYiiR

> <ActivityOutcome_CPDBAS_Rat>
active

> <TD50_Rat_mmol>
0.000503

$$$$

  CDK     0721101958

  8  8  0  0  0  0  0  0  0  0999 V2000
    4.6080   -2.6588    0.0000 O   0  0  0  0  0  2  0  0  0  0  0  0
    3.4560   -1.9953    0.0000 C   0  0  0  0  0  4  0  0  0  0  0  0
    2.3040   -2.6588    0.0000 C   0  0  0  0  0  4  0  0  0  0  0  0
    1.1520   -1.9953    0.0000 C   0  0  0  0  0  4  0  0  0  0  0  0
    1.1520   -0.6635    0.0000 C   0  0  0  0  0  4  0  0  0  0  0  0
    2.3040    0.0000    0.0000 C   0  0  0  0  0  4  0  0  0  0  0  0
    3.4560   -0.6635    0.0000 C   0  0  0  0  0  4  0  0  0  0  0  0
    0.0000   -2.6588    0.0000 O   0  0  0  0  0  2  0  0  0  0  0  0
  1  2  1  0  0  0  0 
  2  3  2  0  0  0  0 
  2  7  1  0  0  0  0 
  3  4  1  0  0  0  0 
  4  5  2  0  0  0  0 
  4  8  1  0  0  0  0 
  5  6  1  0  0  0  0 
  6  7  2  0  0  0  0 
M  END
> <CDK Fingerprint>
AgAAAAAAAAAAAAAAAAAAAAAAAAAAAAACYQAAAgAIAAAAAAAAAAAAACAAAAAAQAAAAAAAAAAAAAAAAAAAAAAAAAAAAACAAAAAAAAAAAAAAAAAAAAAACAAAAAAICAAAAAAAgAAAAAAAAAAgAAAAAAAAAAAAAAA

> <ActivityOutcome_CPDBAS_Rat>
inactive

$$$$

  CDK     0721101958

 22 22  0  0  0  0  0  0  0  0999 V2000
    2.3106   -1.9924    0.0000 C   0  0  0  0  0  4  0  0  0  0  0  0
    3.4729   -1.3421    0.0000 C   0  0  0  0  0  4  0  0  0  0  0  0
    2.3106   -3.3483    0.0000 C   0  0  0  0  0  4  0  0  0  0  0  0
    1.1622   -1.3421    0.0000 C   0  0  0  0  0  4  0  0  0  0  0  0
    4.6074   -1.9924    0.0000 C   0  0  0  0  0  4  0  0  0  0  0  0
   11.5255   -1.9924    0.0000 C   0  0  0  0  0  4  0  0  0  0  0  0
   12.6877   -1.3421    0.0000 C   0  0  0  0  0  4  0  0  0  0  0  0
    8.0803   -1.3421    0.0000 C   0  0  0  0  0  4  0  0  0  0  0  0
   10.3909   -1.3421    0.0000 C   0  0  0  0  0  4  0  0  0  0  0  0
    5.7697   -1.3421    0.0000 C   0  0  0  0  0  4  0  0  0  0  0  0
    9.2287   -1.9924    0.0000 C   0  0  0  0  0  4  0  0  0  0  0  0
    6.9181   -1.9924    0.0000 C   0  0  0  0  0  4  0  0  0  0  0  0
   13.8361   -1.9924    0.0000 O   0  0  0  0  0  2  0  0  0  0  0  0
   12.6877    0.0000    0.0000 O   0  0  0  0  0  2  0  0  0  0  0  0
    1.1622   -3.9986    0.0000 C   0  0  0  0  0  4  0  0  0  0  0  0
    0.0000   -1.9924    0.0000 C   0  0  0  0  0  4  0  0  0  0  0  0
    3.4729   -3.9986    0.0000 C   0  0  0  0  0  4  0  0  0  0  0  0
    1.8125   -0.1937    0.0000 C   0  0  0  0  0  4  0  0  0  0  0  0
    0.4843   -0.1937    0.0000 C   0  0  0  0  0  4  0  0  0  0  0  0
    0.0000   -3.3483    0.0000 C   0  0  0  0  0  4  0  0  0  0  0  0
   10.3909    0.0000    0.0000 C   0  0  0  0  0  4  0  0  0  0  0  0
    5.7697    0.0000    0.0000 C   0  0  0  0  0  4  0  0  0  0  0  0
  1  2  1  0  0  0  0 
  1  3  2  0  0  0  0 
  1  4  1  0  0  0  0 
  2  5  2  0  0  0  0 
  3 15  1  0  0  0  0 
  3 17  1  0  0  0  0 
  4 16  1  0  0  0  0 
  4 18  1  0  0  0  0 
  4 19  1  0  0  0  0 
  5 10  1  0  0  0  0 
  6  9  2  0  0  0  0 
  6  7  1  0  0  0  0 
  7 13  2  0  0  0  0 
  7 14  1  0  0  0  0 
  8 12  1  0  0  0  0 
  8 11  2  0  0  0  0 
  9 11  1  0  0  0  0 
  9 21  1  0  0  0  0 
 10 12  2  0  0  0  0 
 10 22  1  0  0  0  0 
 15 20  1  0  0  0  0 
 16 20  1  0  0  0  0 
M  END
> <CDK Fingerprint>
QAABCAAAAkEAAAIAAAAACIAAAoAEQABAAAAEAIEAAABRKOAAAAAAACAAAAAQAAAgAAAACBAQkAQAABBAAAQAAAEAAARAAAAAAAAAAAABAABgAAABAAgUAAAQAAAJAQAAAEAAAABAAAAAAAAREAAAAAAAAADwCAAAAABAAAAAIA==

> <ActivityOutcome_CPDBAS_Rat>
inactive

$$$$

  CDK     0721101958

 24 24  0  0  0  0  0  0  0  0999 V2000
    1.8254   -0.1777    0.0000 C   0  0  0  0  0  4  0  0  0  0  0  0
    1.1631   -1.3408    0.0000 C   0  0  0  0  0  4  0  0  0  0  0  0
    2.3100   -1.9869    0.0000 C   0  0  0  0  0  4  0  0  0  0  0  0
    2.3100   -3.3277    0.0000 C   0  0  0  0  0  4  0  0  0  0  0  0
    1.1631   -3.9900    0.0000 C   0  0  0  0  0  4  0  0  0  0  0  0
    0.0000   -3.3277    0.0000 C   0  0  0  0  0  4  0  0  0  0  0  0
    0.0000   -1.9869    0.0000 C   0  0  0  0  0  4  0  0  0  0  0  0
    3.4731   -3.9900    0.0000 C   0  0  0  0  0  4  0  0  0  0  0  0
    3.4731   -1.3408    0.0000 C   0  0  0  0  0  4  0  0  0  0  0  0
    4.6200   -1.9869    0.0000 C   0  0  0  0  0  4  0  0  0  0  0  0
    5.7831   -1.3408    0.0000 C   0  0  0  0  0  4  0  0  0  0  0  0
    6.9300   -1.9869    0.0000 C   0  0  0  0  0  4  0  0  0  0  0  0
    8.0769   -1.3408    0.0000 C   0  0  0  0  0  4  0  0  0  0  0  0
    9.2239   -1.9869    0.0000 C   0  0  0  0  0  4  0  0  0  0  0  0
   10.3708   -1.3246    0.0000 C   0  0  0  0  0  4  0  0  0  0  0  0
   11.5339   -1.9869    0.0000 C   0  0  0  0  0  4  0  0  0  0  0  0
   12.6808   -1.3246    0.0000 C   0  0  0  0  0  4  0  0  0  0  0  0
   13.8439   -1.9869    0.0000 O   0  0  0  0  0  2  0  0  0  0  0  0
   14.9908   -1.3246    0.0000 C   0  0  0  0  0  4  0  0  0  0  0  0
   14.9908    0.0000    0.0000 O   0  0  0  0  0  2  0  0  0  0  0  0
   16.1539   -1.9869    0.0000 C   0  0  0  0  0  4  0  0  0  0  0  0
   10.3708    0.0000    0.0000 C   0  0  0  0  0  4  0  0  0  0  0  0
    5.7831    0.0000    0.0000 C   0  0  0  0  0  4  0  0  0  0  0  0
    0.4846   -0.1777    0.0000 C   0  0  0  0  0  4  0  0  0  0  0  0
  1  2  1  0  0  0  0 
  2  3  1  0  0  0  0 
  2  7  1  0  0  0  0 
  2 24  1  0  0  0  0 
  3  4  2  0  0  0  0 
  3  9  1  0  0  0  0 
  4  5  1  0  0  0  0 
  4  8  1  0  0  0  0 
  5  6  1  0  0  0  0 
  6  7  1  0  0  0  0 
  9 10  2  0  0  0  0 
 10 11  1  0  0  0  0 
 11 12  2  0  0  0  0 
 11 23  1  0  0  0  0 
 12 13  1  0  0  0  0 
 13 14  2  0  0  0  0 
 14 15  1  0  0  0  0 
 15 16  2  0  0  0  0 
 15 22  1  0  0  0  0 
 16 17  1  0  0  0  0 
 17 18  1  0  0  0  0 
 18 19  1  0  0  0  0 
 19 20  2  0  0  0  0 
 19 21  1  0  0  0  0 
M  END
> <CDK Fingerprint>
QAABCAAAAkAAAAIAAAQACIAAAoAEQADgEAAEwIEEAABRCOAAgAAAACAAUAAQAEAgAgAACBAQkCQAABBAAAQAAAEAAAQAAAAAAAAAAAABAABgAAABAAgUAAAwAAAJAAAAAEAAAABAAAAAAAAREAAAAQAAAADQCAAAAABAAAAAIA==

> <ActivityOutcome_CPDBAS_Rat>
active

> <TD50_Rat_mmol>
0.381

$$$$

  CDK     0721101958

 38 38  0  0  0  0  0  0  0  0999 V2000
    1.7721   -2.1436    0.0000 C   0  0  0  0  0  4  0  0  0  0  0  0
    2.0007   -3.4584    0.0000 C   0  0  0  0  0  4  0  0  0  0  0  0
    2.6581   -4.6017    0.0000 C   0  0  0  0  0  4  0  0  0  0  0  0
    2.0007   -5.7449    0.0000 C   0  0  0  0  0  4  0  0  0  0  0  0
    0.6574   -5.7449    0.0000 C   0  0  0  0  0  4  0  0  0  0  0  0
    0.0000   -4.6017    0.0000 C   0  0  0  0  0  4  0  0  0  0  0  0
    0.6574   -3.4584    0.0000 C   0  0  0  0  0  4  0  0  0  0  0  0
    2.6581   -6.9168    0.0000 C   0  0  0  0  0  4  0  0  0  0  0  0
    4.0014   -4.6017    0.0000 C   0  0  0  0  0  4  0  0  0  0  0  0
    4.6588   -5.7449    0.0000 C   0  0  0  0  0  4  0  0  0  0  0  0
    5.9736   -5.7449    0.0000 C   0  0  0  0  0  4  0  0  0  0  0  0
    6.6595   -4.6017    0.0000 C   0  0  0  0  0  4  0  0  0  0  0  0
    7.9743   -4.6017    0.0000 C   0  0  0  0  0  4  0  0  0  0  0  0
    8.6317   -3.4584    0.0000 C   0  0  0  0  0  4  0  0  0  0  0  0
    9.9750   -3.4584    0.0000 C   0  0  0  0  0  4  0  0  0  0  0  0
   10.6324   -2.3151    0.0000 C   0  0  0  0  0  4  0  0  0  0  0  0
   11.9757   -2.3151    0.0000 C   0  0  0  0  0  4  0  0  0  0  0  0
   12.6331   -1.1433    0.0000 O   0  0  0  0  0  2  0  0  0  0  0  0
   13.9479   -1.1433    0.0000 C   0  0  0  0  0  4  0  0  0  0  0  0
   14.6338   -2.3151    0.0000 O   0  0  0  0  0  2  0  0  0  0  0  0
   14.6338    0.0000    0.0000 C   0  0  0  0  0  4  0  0  0  0  0  0
   15.9486    0.0000    0.0000 C   0  0  0  0  0  4  0  0  0  0  0  0
   16.6060   -1.1433    0.0000 C   0  0  0  0  0  4  0  0  0  0  0  0
   17.9493   -1.1433    0.0000 C   0  0  0  0  0  4  0  0  0  0  0  0
   18.6067   -2.3151    0.0000 C   0  0  0  0  0  4  0  0  0  0  0  0
   19.9500   -2.3151    0.0000 C   0  0  0  0  0  4  0  0  0  0  0  0
   20.6074   -3.4584    0.0000 C   0  0  0  0  0  4  0  0  0  0  0  0
   21.9222   -3.4584    0.0000 C   0  0  0  0  0  4  0  0  0  0  0  0
   22.6081   -4.6017    0.0000 C   0  0  0  0  0  4  0  0  0  0  0  0
   23.9229   -4.6017    0.0000 C   0  0  0  0  0  4  0  0  0  0  0  0
   24.5803   -5.7449    0.0000 C   0  0  0  0  0  4  0  0  0  0  0  0
   25.9236   -5.7449    0.0000 C   0  0  0  0  0  4  0  0  0  0  0  0
   26.5810   -6.9168    0.0000 C   0  0  0  0  0  4  0  0  0  0  0  0
   27.9243   -6.9168    0.0000 C   0  0  0  0  0  4  0  0  0  0  0  0
   28.5817   -8.0600    0.0000 C   0  0  0  0  0  4  0  0  0  0  0  0
   10.6324   -4.6017    0.0000 C   0  0  0  0  0  4  0  0  0  0  0  0
    6.6595   -6.9168    0.0000 C   0  0  0  0  0  4  0  0  0  0  0  0
    3.2297   -3.0011    0.0000 C   0  0  0  0  0  4  0  0  0  0  0  0
  1  2  1  0  0  0  0 
  2  3  1  0  0  0  0 
  2  7  1  0  0  0  0 
  2 38  1  0  0  0  0 
  3  4  2  0  0  0  0 
  3  9  1  0  0  0  0 
  4  5  1  0  0  0  0 
  4  8  1  0  0  0  0 
  5  6  1  0  0  0  0 
  6  7  1  0  0  0  0 
  9 10  2  0  0  0  0 
 10 11  1  0  0  0  0 
 11 12  2  0  0  0  0 
 11 37  1  0  0  0  0 
 12 13  1  0  0  0  0 
 13 14  2  0  0  0  0 
 14 15  1  0  0  0  0 
 15 16  2  0  0  0  0 
 15 36  1  0  0  0  0 
 16 17  1  0  0  0  0 
 17 18  1  0  0  0  0 
 18 19  1  0  0  0  0 
 19 20  2  0  0  0  0 
 19 21  1  0  0  0  0 
 21 22  1  0  0  0  0 
 22 23  1  0  0  0  0 
 23 24  1  0  0  0  0 
 24 25  1  0  0  0  0 
 25 26  1  0  0  0  0 
 26 27  1  0  0  0  0 
 27 28  1  0  0  0  0 
 28 29  1  0  0  0  0 
 29 30  1  0  0  0  0 
 30 31  1  0  0  0  0 
 31 32  1  0  0  0  0 
 32 33  1  0  0  0  0 
 33 34  1  0  0  0  0 
 34 35  1  0  0  0  0 
M  END
> <CDK Fingerprint>
ANAAAQgAAAJAAQACEQAEABigAAKABGAA4BAABMCBBAABUQjgAIgAAAAgAFEgEABQIAIgAAgQEpAkAAAwQEAEAAABAAAEAAAAAAQEAEAAAQAAYAAAAQAIVAABMAAACQAAAABIAAAAQAAAAAAAERAAAQEAAAAA0BgAAAAAQAQAACA=

> <ActivityOutcome_CPDBAS_Rat>
inactive

$$$$

  CDK     0721101958

 25 27  0  0  0  0  0  0  0  0999 V2000
    5.7044   -1.5850    0.0000 C   0  0  0  0  0  4  0  0  0  0  0  0
    2.2362   -3.6172    0.0000 C   0  0  0  0  0  4  0  0  0  0  0  0
    3.3504   -4.2920    0.0000 O   0  0  0  0  0  2  0  0  0  0  0  0
    3.3504   -5.5945    0.0000 C   0  0  0  0  0  4  0  0  0  0  0  0
    6.7166   -2.3304    0.0000 C   0  0  0  0  0  4  0  0  0  0  0  0
    2.2362   -2.3304    0.0000 C   0  0  0  0  0  4  0  0  0  0  0  0
    5.6102   -5.5945    0.0000 C   0  0  0  0  0  4  0  0  0  0  0  0
    4.4960   -7.5640    0.0000 N   0  0  0  0  0  3  0  0  0  0  0  0
    4.4960   -6.2301    0.0000 C   0  0  0  0  0  4  0  0  0  0  0  0
    6.7166   -3.6172    0.0000 O   0  0  0  0  0  2  0  0  0  0  0  0
    4.2920   -1.2633    0.0000 C   0  0  0  0  0  4  0  0  0  0  0  0
    6.7166   -6.2301    0.0000 C   0  0  0  0  0  4  0  0  0  0  0  0
    2.9581   -1.6242    0.0000 C   0  0  0  0  0  4  0  0  0  0  0  0
    2.2362   -6.2301    0.0000 C   0  0  0  0  0  4  0  0  0  0  0  0
    5.6102   -4.2920    0.0000 C   0  0  0  0  0  4  0  0  0  0  0  0
    6.7166   -7.5640    0.0000 C   0  0  0  0  0  4  0  0  0  0  0  0
    2.2362   -7.5640    0.0000 C   0  0  0  0  0  4  0  0  0  0  0  0
    1.0907   -4.2920    0.0000 O   0  0  0  0  0  2  0  0  0  0  0  0
    7.8465   -1.6713    0.0000 O   0  0  0  0  0  2  0  0  0  0  0  0
    1.1299   -1.6713    0.0000 C   0  0  0  0  0  4  0  0  0  0  0  0
    5.6024   -0.4786    0.0000 O   0  0  0  0  0  2  0  0  0  0  0  0
    6.4733   -1.0671    0.0000 C   0  0  0  0  0  4  0  0  0  0  0  0
    7.3678   -1.0671    0.0000 O   0  0  0  0  0  2  0  0  0  0  0  0
    4.2920    0.0000    0.0000 C   0  0  0  0  0  4  0  0  0  0  0  0
    0.0000   -2.3069    0.0000 C   0  0  0  0  0  4  0  0  0  0  0  0
  1  5  1  0  0  0  0 
  1 11  1  0  0  0  0 
  1 21  1  1  0  0  0 
  1 22  1  6  0  0  0 
  2  6  1  0  0  0  0 
  2  3  1  0  0  0  0 
  2 18  2  0  0  0  0 
  4  3  1  1  0  0  0 
  4 14  1  0  0  0  0 
  4  9  1  0  0  0  0 
  5 10  1  0  0  0  0 
  5 19  2  0  0  0  0 
  6 13  1  0  0  0  0 
  6 20  2  0  0  0  0 
  7 15  1  0  0  0  0 
  7  9  1  0  0  0  0 
  7 12  2  0  0  0  0 
  8  9  1  0  0  0  0 
  8 17  1  0  0  0  0 
  8 16  1  0  0  0  0 
 10 15  1  0  0  0  0 
 11 13  1  0  0  0  0 
 11 24  1  1  0  0  0 
 12 16  1  0  0  0  0 
 14 17  1  0  0  0  0 
 20 25  1  0  0  0  0 
 22 23  1  0  0  0  0 
M  END
> <CDK Fingerprint>
AtCYBUkDAgBqIYiCBAMBQREUagIABDEC4TAEAIMAACATAwBgRIwAAAACAAkJAADZbAYyBkSQEBJgAEQjwWQQQAAABCQOcgHAAAQAYVagUMgBAAhTIGFEQCBhMgQCAEIogQhIRxABAACBCAhgQBAgB7UACYAE8H/ACEpoQQZCACA=

> <ActivityOutcome_CPDBAS_Rat>
active

> <TD50_Rat_mmol>
0.00245

$$$$

  CDK     0721101958

 25 27  0  0  0  0  0  0  0  0999 V2000
    6.2442    2.0957    0.0000 C   0  0  0  0  0  4  0  0  0  0  0  0
    5.0331    1.4000    0.0000 C   0  0  0  0  0  4  0  0  0  0  0  0
    3.8221    2.0957    0.0000 C   0  0  0  0  0  4  0  0  0  0  0  0
    3.8221    3.5043    0.0000 O   0  0  0  0  0  2  0  0  0  0  0  0
    2.6110    4.2000    0.0000 C   0  0  0  0  0  4  0  0  0  0  0  0
    2.6110    5.6000    0.0000 C   0  0  0  0  0  4  0  0  0  0  0  0
    3.8221    6.2957    0.0000 C   0  0  0  0  0  4  0  0  0  0  0  0
    5.0331    5.6000    0.0000 C   0  0  0  0  0  4  0  0  0  0  0  0
    5.0331    7.1031    0.0000 C   0  0  0  0  0  4  0  0  0  0  0  0
    6.2442    6.2957    0.0000 C   0  0  0  0  0  4  0  0  0  0  0  0
    7.4552    5.6000    0.0000 C   0  0  0  0  0  4  0  0  0  0  0  0
    7.4552    4.2000    0.0000 O   0  0  0  0  0  2  0  0  0  0  0  0
    6.2442    3.5043    0.0000 C   0  0  0  0  0  4  0  0  0  0  0  0
    8.2025    6.0380    0.0000 O   0  0  0  0  0  2  0  0  0  0  0  0
    7.5583    7.0429    0.0000 C   0  0  0  0  0  4  0  0  0  0  0  0
    8.5890    6.6135    0.0000 O   0  0  0  0  0  2  0  0  0  0  0  0
    6.2528    7.7988    0.0000 O   0  0  0  0  0  2  0  0  0  0  0  0
    1.3055    6.3472    0.0000 C   0  0  0  0  0  4  0  0  0  0  0  0
    0.0000    5.5914    0.0000 C   0  0  0  0  0  4  0  0  0  0  0  0
    1.3991    3.5058    0.0000 O   0  0  0  0  0  2  0  0  0  0  0  0
    2.6110    1.4000    0.0000 C   0  0  0  0  0  4  0  0  0  0  0  0
    2.6110    0.0000    0.0000 C   0  0  0  0  0  4  0  0  0  0  0  0
    5.0331    0.0000    0.0000 N   0  0  0  0  0  3  0  0  0  0  0  0
    7.4552    0.0000    0.0000 C   0  0  0  0  0  4  0  0  0  0  0  0
    7.4552    1.4000    0.0000 C   0  0  0  0  0  4  0  0  0  0  0  0
  2  1  1  0  0  0  0 
 13  1  1  0  0  0  0 
 25  1  2  0  0  0  0 
  3  2  1  0  0  0  0 
 23  2  1  0  0  0  0 
  3  4  1  1  0  0  0 
 21  3  1  0  0  0  0 
  5  4  1  0  0  0  0 
  6  5  1  0  0  0  0 
 20  5  2  0  0  0  0 
  7  6  1  0  0  0  0 
 18  6  2  0  0  0  0 
  8  7  1  0  0  0  0 
  9  8  2  0  0  0  0 
 10  8  1  0  0  0  0 
 11 10  1  0  0  0  0 
 10 15  1  6  0  0  0 
 10 17  1  1  0  0  0 
 12 11  1  0  0  0  0 
 14 11  2  0  0  0  0 
 13 12  1  0  0  0  0 
 16 15  1  0  0  0  0 
 19 18  1  0  0  0  0 
 22 21  1  0  0  0  0 
 23 22  1  0  0  0  0 
 24 23  1  0  0  0  0 
 25 24  1  0  0  0  0 
M  END
> <CDK Fingerprint>
AtCYBUkDAgBqIYiCBAMBQREUagIABDEC4TAEAMMAACATAwBgRIwAAABCAAkJAADZbAYyBkSQEBJgAEQjwWQQQAAQBSQOcgHAAAQAYVagUMgBAAhTIGFEQCBhMgQCAEIohQhIRxABAACBCAhgQBAgB7VACYAE8H/ACEpowQZiACA=

> <ActivityOutcome_CPDBAS_Rat>
active

> <TD50_Rat_mmol>
0.000341

$$$$

  CDK     0721101958

 59 63  0  0  0  0  0  0  0  0999 V2000
    6.0513    4.1919    0.0000 C   0  0  0  0  0  4  0  0  0  0  0  0
    9.6916    6.2562    0.0000 C   0  0  0  0  0  4  0  0  0  0  0  0
    9.6916    4.9010    0.0000 C   0  0  0  0  0  4  0  0  0  0  0  0
    4.8694    4.9010    0.0000 C   0  0  0  0  0  4  0  0  0  0  0  0
    7.2490    6.2562    0.0000 C   0  0  0  0  0  4  0  0  0  0  0  0
    7.2490    4.9010    0.0000 C   0  0  0  0  0  4  0  0  0  0  0  0
    3.6245    2.8208    0.0000 C   0  0  0  0  0  4  0  0  0  0  0  0
   10.8893    6.9812    0.0000 N   0  0  0  0  0  3  0  0  0  0  0  0
    3.6245    4.1919    0.0000 O   0  0  0  0  0  2  0  0  0  0  0  0
    8.4782    6.9812    0.0000 C   0  0  0  0  0  4  0  0  0  0  0  0
    8.4782    4.1919    0.0000 C   0  0  0  0  0  4  0  0  0  0  0  0
    6.0513    6.9812    0.0000 C   0  0  0  0  0  4  0  0  0  0  0  0
    6.0513    2.8208    0.0000 C   0  0  0  0  0  4  0  0  0  0  0  0
    4.8694    6.2562    0.0000 C   0  0  0  0  0  4  0  0  0  0  0  0
    3.6245    8.3679    0.0000 C   0  0  0  0  0  4  0  0  0  0  0  0
   10.8893    8.3679    0.0000 C   0  0  0  0  0  4  0  0  0  0  0  0
    4.8694    9.0770    0.0000 C   0  0  0  0  0  4  0  0  0  0  0  0
    6.0513   11.1730    0.0000 C   0  0  0  0  0  4  0  0  0  0  0  0
    4.8694   10.4481    0.0000 C   0  0  0  0  0  4  0  0  0  0  0  0
   10.9208    4.1919    0.0000 C   0  0  0  0  0  4  0  0  0  0  0  0
    3.6245    6.9812    0.0000 C   0  0  0  0  0  4  0  0  0  0  0  0
   12.1027    2.1117    0.0000 N   0  0  0  0  0  3  0  0  0  0  0  0
    7.2490   10.4481    0.0000 C   0  0  0  0  0  4  0  0  0  0  0  0
   10.9208    2.8051    0.0000 N   0  0  0  0  0  3  0  0  0  0  0  0
   12.0869    9.0770    0.0000 C   0  0  0  0  0  4  0  0  0  0  0  0
    1.2449    2.8208    0.0000 O   0  0  0  0  0  2  0  0  0  0  0  0
   14.5453    0.7092    0.0000 N   0  0  0  0  0  3  0  0  0  0  0  0
    1.2449    4.1919    0.0000 C   0  0  0  0  0  4  0  0  0  0  0  0
    2.4426    4.9010    0.0000 C   0  0  0  0  0  4  0  0  0  0  0  0
    2.4426    6.2562    0.0000 C   0  0  0  0  0  4  0  0  0  0  0  0
   10.8893   11.1730    0.0000 C   0  0  0  0  0  4  0  0  0  0  0  0
    7.2648    2.1432    0.0000 O   0  0  0  0  0  2  0  0  0  0  0  0
   12.0869   10.4481    0.0000 C   0  0  0  0  0  4  0  0  0  0  0  0
    9.6916    9.0770    0.0000 O   0  0  0  0  0  2  0  0  0  0  0  0
   12.1027    0.7092    0.0000 C   0  0  0  0  0  4  0  0  0  0  0  0
   13.3162    2.8208    0.0000 C   0  0  0  0  0  4  0  0  0  0  0  0
    8.4782   11.1730    0.0000 C   0  0  0  0  0  4  0  0  0  0  0  0
    9.6916   10.4481    0.0000 C   0  0  0  0  0  4  0  0  0  0  0  0
    8.4782    8.3679    0.0000 O   0  0  0  0  0  2  0  0  0  0  0  0
    8.4782    2.8051    0.0000 O   0  0  0  0  0  2  0  0  0  0  0  0
    6.0513    8.3679    0.0000 O   0  0  0  0  0  2  0  0  0  0  0  0
   14.5453    2.1117    0.0000 C   0  0  0  0  0  4  0  0  0  0  0  0
   13.3162    0.0000    0.0000 C   0  0  0  0  0  4  0  0  0  0  0  0
    3.6088   11.1730    0.0000 O   0  0  0  0  0  2  0  0  0  0  0  0
    7.2490    9.0770    0.0000 O   0  0  0  0  0  2  0  0  0  0  0  0
    3.6245    1.4499    0.0000 C   0  0  0  0  0  4  0  0  0  0  0  0
    4.8694    7.6745    0.0000 C   0  0  0  0  0  4  0  0  0  0  0  0
    6.0513   12.5440    0.0000 C   0  0  0  0  0  4  0  0  0  0  0  0
    1.2134    6.9812    0.0000 O   0  0  0  0  0  2  0  0  0  0  0  0
   15.7588    0.0000    0.0000 C   0  0  0  0  0  4  0  0  0  0  0  0
   13.3162    8.3679    0.0000 C   0  0  0  0  0  4  0  0  0  0  0  0
    8.4782   12.5440    0.0000 C   0  0  0  0  0  4  0  0  0  0  0  0
    0.0000    6.2562    0.0000 C   0  0  0  0  0  4  0  0  0  0  0  0
    6.1144    9.7862    0.0000 C   0  0  0  0  0  4  0  0  0  0  0  0
    2.3953    9.1401    0.0000 O   0  0  0  0  0  2  0  0  0  0  0  0
    0.9612    9.1401    0.0000 C   0  0  0  0  0  4  0  0  0  0  0  0
    0.2206   10.3693    0.0000 O   0  0  0  0  0  2  0  0  0  0  0  0
    0.2679    7.8636    0.0000 C   0  0  0  0  0  4  0  0  0  0  0  0
    3.6245    5.5471    0.0000 C   0  0  0  0  0  4  0  0  0  0  0  0
  1  4  2  0  0  0  0 
  1  6  1  0  0  0  0 
  1 13  1  0  0  0  0 
  2  3  1  0  0  0  0 
  2  8  1  0  0  0  0 
  2 10  2  0  0  0  0 
  3 11  2  0  0  0  0 
  3 20  1  0  0  0  0 
  4  9  1  0  0  0  0 
  4 14  1  0  0  0  0 
  5  6  2  0  0  0  0 
  5 10  1  0  0  0  0 
  5 12  1  0  0  0  0 
  6 11  1  0  0  0  0 
  7 13  1  0  0  0  0 
  7 26  1  0  0  0  0 
  7 46  1  6  0  0  0 
  7  9  1  0  0  0  0 
  8 16  1  0  0  0  0 
 10 39  1  0  0  0  0 
 11 40  1  0  0  0  0 
 12 41  1  0  0  0  0 
 12 14  2  0  0  0  0 
 13 32  2  0  0  0  0 
 14 47  1  0  0  0  0 
 15 21  1  0  0  0  0 
 15 17  1  0  0  0  0 
 15 55  1  1  0  0  0 
 16 25  1  0  0  0  0 
 16 34  2  0  0  0  0 
 17 19  1  0  0  0  0 
 17 54  1  1  0  0  0 
 18 19  1  0  0  0  0 
 18 23  1  0  0  0  0 
 18 48  1  6  0  0  0 
 19 44  1  6  0  0  0 
 20 24  2  0  0  0  0 
 21 30  1  0  0  0  0 
 21 59  1  6  0  0  0 
 22 24  1  0  0  0  0 
 22 35  1  0  0  0  0 
 22 36  1  0  0  0  0 
 23 45  1  6  0  0  0 
 23 37  1  0  0  0  0 
 25 33  2  0  0  0  0 
 25 51  1  0  0  0  0 
 26 28  1  0  0  0  0 
 27 42  1  0  0  0  0 
 27 50  1  0  0  0  0 
 27 43  1  0  0  0  0 
 28 29  2  0  0  0  0 
 29 30  1  0  0  0  0 
 30 49  1  6  0  0  0 
 31 33  1  0  0  0  0 
 31 38  2  0  0  0  0 
 35 43  1  0  0  0  0 
 36 42  1  0  0  0  0 
 37 38  1  0  0  0  0 
 37 52  1  1  0  0  0 
 49 53  1  0  0  0  0 
 55 56  1  0  0  0  0 
 56 57  2  0  0  0  0 
 56 58  1  0  0  0  0 
M  END
> <CDK Fingerprint>
asKYgBAARLBrN4xToRfsZZesgEKMDEd9wURgJtAl7r9KXWtrDNEGjJiDgG3lcCDVdNYkOBi6EhFmSDbfwOeNCtAeXCAG64NThKwyzmaxBZEQcUHBKQR4XEDBkYAAiocA7QFKZWAhbSUCEPAuaZQsIfEqPqiO8Drla4s4VyAzWDA=

> <ActivityOutcome_CPDBAS_Rat>
inactive

$$$$

  CDK     0721101958

 20 22  0  0  0  0  0  0  0  0999 V2000
    6.1166   -5.1525    0.0000 C   0  0  0  0  0  4  0  0  0  0  0  0
    5.5495   -3.9454    0.0000 C   0  0  0  0  0  4  0  0  0  0  0  0
    4.2209   -3.8401    0.0000 N   0  0  0  0  0  3  0  0  0  0  0  0
    3.3540   -4.8366    0.0000 N   0  0  0  0  0  3  0  0  0  0  0  0
    2.1388   -4.3262    0.0000 C   0  0  0  0  0  4  0  0  0  0  0  0
    0.9803   -4.9905    0.0000 C   0  0  0  0  0  4  0  0  0  0  0  0
    2.2441   -2.9894    0.0000 C   0  0  0  0  0  4  0  0  0  0  0  0
    1.1990   -2.1631    0.0000 N   0  0  0  0  0  3  0  0  0  0  0  0
    1.1990   -0.8345    0.0000 C   0  0  0  0  0  4  0  0  0  0  0  0
    0.0000   -0.2592    0.0000 O   0  0  0  0  0  2  0  0  0  0  0  0
    2.2360    0.0000    0.0000 C   0  0  0  0  0  4  0  0  0  0  0  0
    3.5322   -0.2917    0.0000 N   0  0  0  0  0  3  0  0  0  0  0  0
    4.1156   -1.4907    0.0000 C   0  0  0  0  0  4  0  0  0  0  0  0
    5.4442   -1.4907    0.0000 C   0  0  0  0  0  4  0  0  0  0  0  0
    6.1085   -0.3322    0.0000 C   0  0  0  0  0  4  0  0  0  0  0  0
    7.4372   -0.3322    0.0000 C   0  0  0  0  0  4  0  0  0  0  0  0
    8.1015   -1.4826    0.0000 C   0  0  0  0  0  4  0  0  0  0  0  0
    7.4372   -2.6330    0.0000 C   0  0  0  0  0  4  0  0  0  0  0  0
    6.1166   -2.6330    0.0000 C   0  0  0  0  0  4  0  0  0  0  0  0
    3.5484   -2.6816    0.0000 C   0  0  0  0  0  4  0  0  0  0  0  0
  1  2  1  0  0  0  0 
  2  3  1  0  0  0  0 
  3  4  1  0  0  0  0 
  3 20  1  0  0  0  0 
  4  5  2  0  0  0  0 
  5  6  1  0  0  0  0 
  5  7  1  0  0  0  0 
  7  8  1  0  0  0  0 
  7 20  2  0  0  0  0 
  8  9  1  0  0  0  0 
  9 10  2  0  0  0  0 
  9 11  1  0  0  0  0 
 11 12  1  0  0  0  0 
 12 13  2  0  0  0  0 
 13 14  1  0  0  0  0 
 13 20  1  0  0  0  0 
 14 15  2  0  0  0  0 
 14 19  1  0  0  0  0 
 15 16  1  0  0  0  0 
 16 17  2  0  0  0  0 
 17 18  1  0  0  0  0 
 18 19  2  0  0  0  0 
M  END
> <CDK Fingerprint>
ANEDBKxKIwMgQJhAgZCAkgEkMCAAAwwQEQAqhRwNkCuEOW4EAAAKkAZAMXYXQKB7oACALBIAUkBrESHIKCgQwxRYBAAhAFEBIBAtCCi4kIkBGRIAgAIa0ICQAEGA2KxoKmARVCAFEASAVM5AAJQAoBE0IMV9YMggAhgCAgoSDA==

> <ActivityOutcome_CPDBAS_Rat>
inactive

$$$$

  CDK     0721101958

 29 33  0  0  0  0  0  0  0  0999 V2000
    8.0602   -4.4011    0.0000 C   0  0  0  0  0  4  0  0  0  0  0  0
    6.9088   -6.3970    0.0000 C   0  0  0  0  0  4  0  0  0  0  0  0
    5.7573   -5.7061    0.0000 C   0  0  0  0  0  4  0  0  0  0  0  0
    8.0602   -5.7061    0.0000 C   0  0  0  0  0  4  0  0  0  0  0  0
    9.2117   -3.7103    0.0000 C   0  0  0  0  0  4  0  0  0  0  0  0
    4.6186   -6.3970    0.0000 C   0  0  0  0  0  4  0  0  0  0  0  0
    6.9088   -3.7103    0.0000 O   0  0  0  0  0  2  0  0  0  0  0  0
    5.7573   -4.4011    0.0000 C   0  0  0  0  0  4  0  0  0  0  0  0
    3.4672   -5.7061    0.0000 C   0  0  0  0  0  4  0  0  0  0  0  0
   11.3355   -3.4800    0.0000 O   0  0  0  0  0  2  0  0  0  0  0  0
   10.3632   -4.4011    0.0000 C   0  0  0  0  0  4  0  0  0  0  0  0
    9.5060   -2.4181    0.0000 C   0  0  0  0  0  4  0  0  0  0  0  0
   10.8237   -2.2901    0.0000 C   0  0  0  0  0  4  0  0  0  0  0  0
    4.6186   -7.7020    0.0000 C   0  0  0  0  0  4  0  0  0  0  0  0
    3.4672   -4.4011    0.0000 O   0  0  0  0  0  2  0  0  0  0  0  0
    2.3157   -6.3970    0.0000 C   0  0  0  0  0  4  0  0  0  0  0  0
    9.2117   -6.3970    0.0000 C   0  0  0  0  0  4  0  0  0  0  0  0
    3.4672   -8.3929    0.0000 C   0  0  0  0  0  4  0  0  0  0  0  0
    2.3157   -7.7020    0.0000 C   0  0  0  0  0  4  0  0  0  0  0  0
   11.5018   -1.1643    0.0000 C   0  0  0  0  0  4  0  0  0  0  0  0
    4.6186   -3.7103    0.0000 C   0  0  0  0  0  4  0  0  0  0  0  0
    6.9088   -7.7020    0.0000 O   0  0  0  0  0  2  0  0  0  0  0  0
   10.3632   -5.7061    0.0000 C   0  0  0  0  0  4  0  0  0  0  0  0
   10.8109    0.0000    0.0000 C   0  0  0  0  0  4  0  0  0  0  0  0
    3.4672   -9.7107    0.0000 O   0  0  0  0  0  2  0  0  0  0  0  0
    1.1515   -8.4057    0.0000 O   0  0  0  0  0  2  0  0  0  0  0  0
   12.7940   -1.1515    0.0000 C   0  0  0  0  0  4  0  0  0  0  0  0
    0.0000   -7.7148    0.0000 C   0  0  0  0  0  4  0  0  0  0  0  0
    2.3157  -10.3759    0.0000 C   0  0  0  0  0  4  0  0  0  0  0  0
  1  4  2  0  0  0  0 
  1  5  1  0  0  0  0 
  1  7  1  0  0  0  0 
  2  4  1  0  0  0  0 
  2 22  2  0  0  0  0 
  2  3  1  0  0  0  0 
  3  8  1  0  0  0  0 
  3  6  1  0  0  0  0 
  4 17  1  0  0  0  0 
  5 11  2  0  0  0  0 
  5 12  1  0  0  0  0 
  6 14  1  0  0  0  0 
  6  9  2  0  0  0  0 
  7  8  1  0  0  0  0 
  8 21  1  0  0  0  0 
  9 15  1  0  0  0  0 
  9 16  1  0  0  0  0 
 10 11  1  0  0  0  0 
 10 13  1  0  0  0  0 
 11 23  1  0  0  0  0 
 12 13  1  0  0  0  0 
 13 20  1  6  0  0  0 
 14 18  2  0  0  0  0 
 15 21  1  0  0  0  0 
 16 19  2  0  0  0  0 
 17 23  2  0  0  0  0 
 18 25  1  0  0  0  0 
 18 19  1  0  0  0  0 
 19 26  1  0  0  0  0 
 20 24  2  0  0  0  0 
 20 27  1  0  0  0  0 
 25 29  1  0  0  0  0 
 26 28  1  0  0  0  0 
M  END
> <CDK Fingerprint>
HEAAAAAiBMQBGoKSAjiDREDIEAgNpQEY4ARKAwACLE1eCRtpABAClKgAAmhAMwC8MAYkIBGQGABGRKZqUEAEAkIPHiwA8gKDDZQyTGNCFMACNQxCCQAoRoHIkMwoQsQJIS5CAESkISAzHQAGSBqMAT0JnEKDuDhEI1EyBCArSAA=

> <ActivityOutcome_CPDBAS_Rat>
inactive

$$$$

  CDK     0721101958

 43 47  0  0  0  0  0  0  0  0999 V2000
    4.6024  -11.2995    0.0000 C   0  0  0  0  0  4  0  0  0  0  0  0
    4.6024   -9.9693    0.0000 C   0  0  0  0  0  4  0  0  0  0  0  0
    5.7644   -9.3118    0.0000 C   0  0  0  0  0  4  0  0  0  0  0  0
    6.9112   -9.9693    0.0000 C   0  0  0  0  0  4  0  0  0  0  0  0
    8.0580   -9.3118    0.0000 C   0  0  0  0  0  4  0  0  0  0  0  0
    9.2048   -9.9693    0.0000 C   0  0  0  0  0  4  0  0  0  0  0  0
    9.2048  -11.2995    0.0000 C   0  0  0  0  0  4  0  0  0  0  0  0
    8.0580  -11.9723    0.0000 C   0  0  0  0  0  4  0  0  0  0  0  0
    6.9112  -11.2995    0.0000 C   0  0  0  0  0  4  0  0  0  0  0  0
    5.7644  -11.9723    0.0000 O   0  0  0  0  0  2  0  0  0  0  0  0
   10.3668  -11.9723    0.0000 O   0  0  0  0  0  2  0  0  0  0  0  0
    8.0580   -7.9815    0.0000 O   0  0  0  0  0  2  0  0  0  0  0  0
    5.7644   -7.9815    0.0000 O   0  0  0  0  0  2  0  0  0  0  0  0
    3.4556   -9.3118    0.0000 O   0  0  0  0  0  2  0  0  0  0  0  0
    3.4556   -7.9815    0.0000 C   0  0  0  0  0  4  0  0  0  0  0  0
    4.6024   -7.3088    0.0000 O   0  0  0  0  0  2  0  0  0  0  0  0
    4.6024   -5.9785    0.0000 C   0  0  0  0  0  4  0  0  0  0  0  0
    5.7644   -5.3210    0.0000 C   0  0  0  0  0  4  0  0  0  0  0  0
    5.7644   -3.9908    0.0000 O   0  0  0  0  0  2  0  0  0  0  0  0
    6.9112   -3.3180    0.0000 C   0  0  0  0  0  4  0  0  0  0  0  0
    6.9112   -1.9877    0.0000 C   0  0  0  0  0  4  0  0  0  0  0  0
    8.0580   -1.3303    0.0000 C   0  0  0  0  0  4  0  0  0  0  0  0
    9.2048   -1.9877    0.0000 C   0  0  0  0  0  4  0  0  0  0  0  0
   10.3668   -1.3303    0.0000 O   0  0  0  0  0  2  0  0  0  0  0  0
    9.2048   -3.3180    0.0000 C   0  0  0  0  0  4  0  0  0  0  0  0
    8.0580   -3.9908    0.0000 O   0  0  0  0  0  2  0  0  0  0  0  0
   10.3668   -3.9908    0.0000 C   0  0  0  0  0  4  0  0  0  0  0  0
    8.0580    0.0000    0.0000 O   0  0  0  0  0  2  0  0  0  0  0  0
    5.7644   -1.3303    0.0000 O   0  0  0  0  0  2  0  0  0  0  0  0
    3.4556   -5.3210    0.0000 C   0  0  0  0  0  4  0  0  0  0  0  0
    3.4556   -3.9908    0.0000 O   0  0  0  0  0  2  0  0  0  0  0  0
    2.3088   -5.9785    0.0000 C   0  0  0  0  0  4  0  0  0  0  0  0
    2.3088   -7.3088    0.0000 C   0  0  0  0  0  4  0  0  0  0  0  0
    1.1468   -7.9815    0.0000 O   0  0  0  0  0  2  0  0  0  0  0  0
    1.1468   -5.3210    0.0000 O   0  0  0  0  0  2  0  0  0  0  0  0
    3.4556  -11.9723    0.0000 C   0  0  0  0  0  4  0  0  0  0  0  0
    3.4556  -13.3026    0.0000 C   0  0  0  0  0  4  0  0  0  0  0  0
    2.3088  -13.9600    0.0000 C   0  0  0  0  0  4  0  0  0  0  0  0
    1.1468  -13.3026    0.0000 C   0  0  0  0  0  4  0  0  0  0  0  0
    0.0000  -13.9600    0.0000 O   0  0  0  0  0  2  0  0  0  0  0  0
    1.1468  -11.9723    0.0000 C   0  0  0  0  0  4  0  0  0  0  0  0
    2.3088  -11.2995    0.0000 C   0  0  0  0  0  4  0  0  0  0  0  0
    2.3088  -15.2903    0.0000 O   0  0  0  0  0  2  0  0  0  0  0  0
  1  2  2  0  0  0  0 
  1 10  1  0  0  0  0 
  1 36  1  0  0  0  0 
  2  3  1  0  0  0  0 
  2 14  1  0  0  0  0 
  3  4  1  0  0  0  0 
  3 13  2  0  0  0  0 
  4  5  1  0  0  0  0 
  4  9  2  0  0  0  0 
  5  6  2  0  0  0  0 
  5 12  1  0  0  0  0 
  6  7  1  0  0  0  0 
  7  8  2  0  0  0  0 
  7 11  1  0  0  0  0 
  8  9  1  0  0  0  0 
  9 10  1  0  0  0  0 
 15 14  1  1  0  0  0 
 15 16  1  0  0  0  0 
 15 33  1  0  0  0  0 
 16 17  1  0  0  0  0 
 17 18  1  1  0  0  0 
 17 30  1  0  0  0  0 
 18 19  1  0  0  0  0 
 20 19  1  1  0  0  0 
 20 21  1  0  0  0  0 
 20 26  1  0  0  0  0 
 21 22  1  0  0  0  0 
 21 29  1  6  0  0  0 
 22 23  1  0  0  0  0 
 22 28  1  6  0  0  0 
 23 24  1  1  0  0  0 
 23 25  1  0  0  0  0 
 25 26  1  0  0  0  0 
 25 27  1  6  0  0  0 
 30 31  1  6  0  0  0 
 30 32  1  0  0  0  0 
 32 33  1  0  0  0  0 
 32 35  1  1  0  0  0 
 33 34  1  6  0  0  0 
 36 37  2  0  0  0  0 
 36 42  1  0  0  0  0 
 37 38  1  0  0  0  0 
 38 39  2  0  0  0  0 
 38 43  1  0  0  0  0 
 39 40  1  0  0  0  0 
 39 41  1  0  0  0  0 
 41 42  2  0  0  0  0 
M  END
> <CDK Fingerprint>
buIKI5jAUCUQSJTbBjQSVRL1oihYjiFU5RROlSEoRBL+oYppTMQOjKgoAm3hMEgcJFZ2IF3AHaNtKwAo4GgkghiPmEml4knT2SQyBFZ8lIMAFsRIQGUMQ9zldYAQAsoSYIBOSNIgbSNBiBGWTFgOCsKIPX2FejpgaQNwIKArQBE=

> <ActivityOutcome_CPDBAS_Rat>
inactive

$$$$

  CDK     0721101958

 12 13  0  0  0  0  0  0  0  0999 V2000
    2.3016   -1.9948    0.0000 C   0  0  0  0  0  4  0  0  0  0  0  0
    1.1533   -2.6580    0.0000 C   0  0  0  0  0  4  0  0  0  0  0  0
    1.4305   -3.9598    0.0000 C   0  0  0  0  0  4  0  0  0  0  0  0
    0.5395   -4.9498    0.0000 O   0  0  0  0  0  2  0  0  0  0  0  0
    2.7521   -4.0984    0.0000 N   0  0  0  0  0  3  0  0  0  0  0  0
    3.2916   -2.8857    0.0000 S   0  0  0  0  0  6  0  0  0  0  0  0
    4.0737   -1.8067    0.0000 O   0  0  0  0  0  2  0  0  0  0  0  0
    4.4449   -3.5490    0.0000 O   0  0  0  0  0  2  0  0  0  0  0  0
    0.0000   -1.9948    0.0000 C   0  0  0  0  0  4  0  0  0  0  0  0
    0.0000   -0.6633    0.0000 C   0  0  0  0  0  4  0  0  0  0  0  0
    1.1533    0.0000    0.0000 C   0  0  0  0  0  4  0  0  0  0  0  0
    2.3016   -0.6633    0.0000 C   0  0  0  0  0  4  0  0  0  0  0  0
  1  2  2  0  0  0  0 
  1  6  1  0  0  0  0 
  1 12  1  0  0  0  0 
  2  3  1  0  0  0  0 
  2  9  1  0  0  0  0 
  3  4  2  0  0  0  0 
  3  5  1  0  0  0  0 
  5  6  1  0  0  0  0 
  6  7  2  0  0  0  0 
  6  8  2  0  0  0  0 
  9 10  2  0  0  0  0 
 10 11  1  0  0  0  0 
 11 12  2  0  0  0  0 
M  END
> <CDK Fingerprint>
AIAAIAAAAEIAgAAAAAAAACEARAAAEJBQAAAQAAABJAAACWhAAAAEBggQAAAAAAAgAEABIBAAIEAIAAAAAIEgAAUAwAAAERAAYAAIIAQAAAAAAAKAAAAgAIkABAAAkQAgAkIAwCGAAACAAkJAGCEgSAAhAIFwKGABAAAAAgIAAQ==

> <ActivityOutcome_CPDBAS_Rat>
inactive

$$$$

  CDK     0721101958

 12 13  0  0  0  0  0  0  0  0999 V2000
    0.0000   -2.6625    0.0000 C   0  0  0  0  0  4  0  0  0  0  0  0
    1.1556   -1.9988    0.0000 C   0  0  0  0  0  4  0  0  0  0  0  0
    2.3033   -2.6625    0.0000 C   0  0  0  0  0  4  0  0  0  0  0  0
    3.4589   -1.9988    0.0000 C   0  0  0  0  0  4  0  0  0  0  0  0
    3.4589   -0.6637    0.0000 C   0  0  0  0  0  4  0  0  0  0  0  0
    4.6067    0.0000    0.0000 C   0  0  0  0  0  4  0  0  0  0  0  0
    5.7622   -0.6637    0.0000 C   0  0  0  0  0  4  0  0  0  0  0  0
    5.7622   -1.9988    0.0000 C   0  0  0  0  0  4  0  0  0  0  0  0
    4.6067   -2.6625    0.0000 C   0  0  0  0  0  4  0  0  0  0  0  0
    7.0271   -2.4048    0.0000 O   0  0  0  0  0  2  0  0  0  0  0  0
    7.8079   -1.3351    0.0000 C   0  0  0  0  0  4  0  0  0  0  0  0
    7.0271   -0.2577    0.0000 O   0  0  0  0  0  2  0  0  0  0  0  0
  1  2  2  0  0  0  0 
  2  3  1  0  0  0  0 
  3  4  1  0  0  0  0 
  4  5  2  0  0  0  0 
  4  9  1  0  0  0  0 
  5  6  1  0  0  0  0 
  6  7  2  0  0  0  0 
  7  8  1  0  0  0  0 
  7 12  1  0  0  0  0 
  8  9  2  0  0  0  0 
  8 10  1  0  0  0  0 
 10 11  1  0  0  0  0 
 11 12  1  0  0  0  0 
M  END
> <CDK Fingerprint>
QAIACAAABEAIAAIAAAAAAAAAAigFAACAAAIAQAACCAgkAmEAAASAgAAIAAAAAAAgBOQgQAAQAEAAACBAAAAAAAYYAAAIAEIAAAIEAAAAgAAQAAAAAAAAAJABAAAAgAAgAALAQCAgYAIQAAJMCAQCAgAUAIAAIAAAAKABICAAAA==

> <ActivityOutcome_CPDBAS_Rat>
active

> <TD50_Rat_mmol>
2.72

$$$$

  CDK     0721101958

 17 17  0  0  0  0  0  0  0  0999 V2000
    3.1480    0.0000    0.0000 O   0  0  0  0  0  2  0  0  0  0  0  0
    3.8049   -1.1588    0.0000 C   0  0  0  0  0  4  0  0  0  0  0  0
    5.1371   -1.1588    0.0000 C   0  0  0  0  0  4  0  0  0  0  0  0
    5.8032    0.0000    0.0000 C   0  0  0  0  0  4  0  0  0  0  0  0
    7.1354    0.0000    0.0000 C   0  0  0  0  0  4  0  0  0  0  0  0
    7.7924   -1.1588    0.0000 C   0  0  0  0  0  4  0  0  0  0  0  0
    7.1354   -2.3085    0.0000 C   0  0  0  0  0  4  0  0  0  0  0  0
    5.8032   -2.3085    0.0000 C   0  0  0  0  0  4  0  0  0  0  0  0
    7.7924   -3.4582    0.0000 C   0  0  0  0  0  4  0  0  0  0  0  0
    9.1246   -3.4582    0.0000 O   0  0  0  0  0  2  0  0  0  0  0  0
    9.1246   -1.1588    0.0000 O   0  0  0  0  0  2  0  0  0  0  0  0
    3.1480   -2.3085    0.0000 C   0  0  0  0  0  4  0  0  0  0  0  0
    1.8158   -2.3085    0.0000 N   0  0  0  0  0  3  0  0  0  0  0  0
    1.1497   -3.4582    0.0000 C   0  0  0  0  0  4  0  0  0  0  0  0
    2.2994   -4.1243    0.0000 C   0  0  0  0  0  4  0  0  0  0  0  0
    0.4836   -4.6079    0.0000 C   0  0  0  0  0  4  0  0  0  0  0  0
    0.0000   -2.7921    0.0000 C   0  0  0  0  0  4  0  0  0  0  0  0
  1  2  1  0  0  0  0 
  2  3  1  0  0  0  0 
  2 12  1  0  0  0  0 
  3  4  2  0  0  0  0 
  3  8  1  0  0  0  0 
  4  5  1  0  0  0  0 
  5  6  2  0  0  0  0 
  6  7  1  0  0  0  0 
  6 11  1  0  0  0  0 
  7  8  2  0  0  0  0 
  7  9  1  0  0  0  0 
  9 10  1  0  0  0  0 
 12 13  1  0  0  0  0 
 13 14  1  0  0  0  0 
 14 15  1  0  0  0  0 
 14 16  1  0  0  0  0 
 14 17  1  0  0  0  0 
M  END
> <CDK Fingerprint>
AJAAwAAAgAIAAhIAAQAAAAAAIACAABAAAgAAAAIEEAiAAmEAAAgAAAAAAAQQAAgwADAgCAAAIEAAAADAAAAAAAYMAAAAAAEAAAIQAAAAgQAQAEAgAAAAAIAQAAAAgAAgAAoAQCQkAAAAAEJAAAQIIICUAIIAAQQAAQAEAAIAAA==

> <ActivityOutcome_CPDBAS_Rat>
active

> <TD50_Rat_mmol>
0.167

$$$$

  CDK     0721101958

 28 30  0  0  0  0  0  0  0  0999 V2000
   13.2958    0.0000    0.0000 C   0  0  0  0  0  4  0  0  0  0  0  0
   14.6254    0.0000    0.0000 C   0  0  0  0  0  4  0  0  0  0  0  0
   15.2826   -1.1615    0.0000 C   0  0  0  0  0  4  0  0  0  0  0  0
   14.6254   -2.3077    0.0000 C   0  0  0  0  0  4  0  0  0  0  0  0
   13.2958   -2.3077    0.0000 C   0  0  0  0  0  4  0  0  0  0  0  0
   12.6234   -3.4539    0.0000 N   0  0  0  0  0  3  0  0  0  0  0  0
   11.2938   -3.4539    0.0000 S   0  0  0  0  0  6  0  0  0  0  0  0
   11.2938   -4.7834    0.0000 O   0  0  0  0  0  2  0  0  0  0  0  0
   11.2938   -2.1243    0.0000 O   0  0  0  0  0  2  0  0  0  0  0  0
    9.9642   -3.4539    0.0000 C   0  0  0  0  0  4  0  0  0  0  0  0
    9.3071   -4.6153    0.0000 C   0  0  0  0  0  4  0  0  0  0  0  0
    7.9775   -4.6153    0.0000 C   0  0  0  0  0  4  0  0  0  0  0  0
    7.3051   -3.4539    0.0000 C   0  0  0  0  0  4  0  0  0  0  0  0
    5.9755   -3.4539    0.0000 N   0  0  0  0  0  3  0  0  0  0  0  0
    5.3183   -4.6153    0.0000 N   0  0  0  0  0  3  0  0  0  0  0  0
    3.9888   -4.6153    0.0000 C   0  0  0  0  0  4  0  0  0  0  0  0
    3.3163   -5.7615    0.0000 C   0  0  0  0  0  4  0  0  0  0  0  0
    1.9867   -5.7615    0.0000 C   0  0  0  0  0  4  0  0  0  0  0  0
    1.3296   -4.6153    0.0000 C   0  0  0  0  0  4  0  0  0  0  0  0
    0.0000   -4.6153    0.0000 O   0  0  0  0  0  2  0  0  0  0  0  0
    1.9867   -3.4539    0.0000 C   0  0  0  0  0  4  0  0  0  0  0  0
    1.3296   -2.3077    0.0000 C   0  0  0  0  0  4  0  0  0  0  0  0
    0.0000   -2.3077    0.0000 O   0  0  0  0  0  2  0  0  0  0  0  0
    1.9867   -1.1615    0.0000 O   0  0  0  0  0  2  0  0  0  0  0  0
    3.3163   -3.4539    0.0000 C   0  0  0  0  0  4  0  0  0  0  0  0
    7.9775   -2.3077    0.0000 C   0  0  0  0  0  4  0  0  0  0  0  0
    9.3071   -2.3077    0.0000 C   0  0  0  0  0  4  0  0  0  0  0  0
   12.6234   -1.1615    0.0000 N   0  0  0  0  0  3  0  0  0  0  0  0
  1  2  2  0  0  0  0 
  1 28  1  0  0  0  0 
  2  3  1  0  0  0  0 
  3  4  2  0  0  0  0 
  4  5  1  0  0  0  0 
  5  6  1  0  0  0  0 
  5 28  2  0  0  0  0 
  6  7  1  0  0  0  0 
  7  8  2  0  0  0  0 
  7  9  2  0  0  0  0 
  7 10  1  0  0  0  0 
 10 11  2  0  0  0  0 
 10 27  1  0  0  0  0 
 11 12  1  0  0  0  0 
 12 13  2  0  0  0  0 
 13 14  1  0  0  0  0 
 13 26  1  0  0  0  0 
 14 15  2  0  0  0  0 
 15 16  1  0  0  0  0 
 16 17  2  0  0  0  0 
 16 25  1  0  0  0  0 
 17 18  1  0  0  0  0 
 18 19  2  0  0  0  0 
 19 20  1  0  0  0  0 
 19 21  1  0  0  0  0 
 21 22  1  0  0  0  0 
 21 25  2  0  0  0  0 
 22 23  1  0  0  0  0 
 22 24  2  0  0  0  0 
 26 27  2  0  0  0  0 
M  END
> <CDK Fingerprint>
AIACIJBCBCAggE4EAgABAiMAAAECEEAAAFAYAARcAsAAG2kRAAgEQgAUMAQAQAggAFAgIBAAIEAJQAUgAIGwoQYAgwACGQGsYAKJICCAwASDAAKAAQEAAKEwAAIAkSAgAEAA4TAkAKAgmCJAEAAcAMQIoIF4KmAxIRQCAFNUQA==

> <ActivityOutcome_CPDBAS_Rat>
active

> <TD50_Rat_mmol>
3.99

$$$$

  CDK     0721101958

 26 27  0  0  0  0  0  0  0  0999 V2000
    4.9983   -1.6803    0.0000 C   0  0  0  0  0  4  0  0  0  0  0  0
    3.7445   -0.9553    0.0000 C   0  0  0  0  0  4  0  0  0  0  0  0
    3.7445   -3.8383    0.0000 O   0  0  0  0  0  2  0  0  0  0  0  0
    2.4991   -1.6803    0.0000 C   0  0  0  0  0  4  0  0  0  0  0  0
    2.4991   -3.1218    0.0000 C   0  0  0  0  0  4  0  0  0  0  0  0
    5.0495   -4.2562    0.0000 O   0  0  0  0  0  2  0  0  0  0  0  0
    2.8233   -5.8683    0.0000 C   0  0  0  0  0  4  0  0  0  0  0  0
    3.6677   -4.6998    0.0000 C   0  0  0  0  0  4  0  0  0  0  0  0
    3.6677   -7.0369    0.0000 C   0  0  0  0  0  4  0  0  0  0  0  0
    5.0409   -5.1433    0.0000 C   0  0  0  0  0  4  0  0  0  0  0  0
    5.0409   -6.5848    0.0000 N   0  0  0  0  0  3  0  0  0  0  0  0
    6.4142   -4.6998    0.0000 C   0  0  0  0  0  4  0  0  0  0  0  0
    7.2586   -5.8683    0.0000 C   0  0  0  0  0  4  0  0  0  0  0  0
    6.4142   -7.0369    0.0000 C   0  0  0  0  0  4  0  0  0  0  0  0
    5.0495   -7.7363    0.0000 C   0  0  0  0  0  4  0  0  0  0  0  0
    7.4974   -1.6803    0.0000 C   0  0  0  0  0  4  0  0  0  0  0  0
    7.4974   -3.1218    0.0000 O   0  0  0  0  0  2  0  0  0  0  0  0
    6.2521   -0.9553    0.0000 C   0  0  0  0  0  4  0  0  0  0  0  0
    6.4057   -3.8980    0.0000 C   0  0  0  0  0  4  0  0  0  0  0  0
    8.5295   -1.0918    0.0000 O   0  0  0  0  0  2  0  0  0  0  0  0
    5.4845    0.0000    0.0000 O   0  0  0  0  0  2  0  0  0  0  0  0
    7.4377   -0.0682    0.0000 C   0  0  0  0  0  4  0  0  0  0  0  0
    5.9707   -2.5077    0.0000 C   0  0  0  0  0  4  0  0  0  0  0  0
    1.2453   -0.9553    0.0000 C   0  0  0  0  0  4  0  0  0  0  0  0
    0.0000   -1.6803    0.0000 C   0  0  0  0  0  4  0  0  0  0  0  0
    1.2538   -3.8383    0.0000 O   0  0  0  0  0  2  0  0  0  0  0  0
  1  2  1  0  0  0  0 
  1 18  1  0  0  0  0 
  1 23  1  6  0  0  0 
  2  4  1  0  0  0  0 
  3  5  1  0  0  0  0 
  8  3  1  1  0  0  0 
  4 24  2  0  0  0  0 
  4  5  1  0  0  0  0 
  5 26  2  0  0  0  0 
  6 10  2  0  0  0  0 
  7  8  1  0  0  0  0 
  7  9  1  0  0  0  0 
  8 10  1  0  0  0  0 
  9 11  1  0  0  0  0 
 10 12  1  0  0  0  0 
 11 14  1  0  0  0  0 
 11 15  1  0  0  0  0 
 12 13  2  0  0  0  0 
 12 19  1  0  0  0  0 
 13 14  1  0  0  0  0 
 16 17  1  0  0  0  0 
 16 18  1  0  0  0  0 
 16 20  2  0  0  0  0 
 17 19  1  0  0  0  0 
 18 21  1  1  0  0  0 
 18 22  1  6  0  0  0 
 24 25  1  0  0  0  0 
M  END
> <CDK Fingerprint>
AtCQJUADAgFqIYCCBAMBQBCUYAIABXEC4RIAAIMAACAXAQBgQIoEAgAAIAkBAADYagYyAETQEBJgAEAjwWQQQBACBCAOcgHAAEQAQUKgUMgBAAgTIGFAQCBlMgQAAEAogAhIRxABAAGBCohwYBAAA7UACAgE8FrACEpoRAYCACA=

> <ActivityOutcome_CPDBAS_Rat>
active

> <TD50_Rat_mmol>
0.00465

$$$$

  CDK     0721101958

 10 11  0  0  0  0  0  0  0  0999 V2000
    5.5020   -2.6575    0.0000 O   0  0  0  0  0  2  0  0  0  0  0  0
    4.3521   -1.9917    0.0000 C   0  0  0  0  0  4  0  0  0  0  0  0
    3.1967   -2.6575    0.0000 C   0  0  0  0  0  4  0  0  0  0  0  0
    2.0468   -1.9917    0.0000 C   0  0  0  0  0  4  0  0  0  0  0  0
    2.0468   -0.6602    0.0000 C   0  0  0  0  0  4  0  0  0  0  0  0
    3.1967    0.0000    0.0000 C   0  0  0  0  0  4  0  0  0  0  0  0
    4.3521   -0.6602    0.0000 C   0  0  0  0  0  4  0  0  0  0  0  0
    0.7813   -0.2531    0.0000 O   0  0  0  0  0  2  0  0  0  0  0  0
    0.0000   -1.3260    0.0000 C   0  0  0  0  0  4  0  0  0  0  0  0
    0.7813   -2.4044    0.0000 O   0  0  0  0  0  2  0  0  0  0  0  0
  1  2  1  0  0  0  0 
  2  3  2  0  0  0  0 
  2  7  1  0  0  0  0 
  3  4  1  0  0  0  0 
  4  5  2  0  0  0  0 
  4 10  1  0  0  0  0 
  5  6  1  0  0  0  0 
  5  8  1  0  0  0  0 
  6  7  2  0  0  0  0 
  8  9  1  0  0  0  0 
  9 10  1  0  0  0  0 
M  END
> <CDK Fingerprint>
QAAAAgAAAAAAAAACCAAAAIAAAABAAAIAAAQCYQAABgAIAABAAAAABAAE4CAAAAAAQAAQAAAAAAAABhAAAIgAQgAAAAQCgACAAAEAAAAAAAAAAAEAAAAAACAAAMAAICAgABAAAgCAAIAAIAAAgAAAAAAAAAEAIAAA

> <ActivityOutcome_CPDBAS_Rat>
active

> <TD50_Rat_mmol>
9.77

$$$$

  CDK     0721101958

  8  7  0  0  0  0  0  0  0  0999 V2000
    5.9806    0.0000    0.0000 O   0  0  0  0  0  2  0  0  0  0  0  0
    5.3167   -1.1543    0.0000 C   0  0  0  0  0  4  0  0  0  0  0  0
    5.9806   -2.3025    0.0000 O   0  0  0  0  0  2  0  0  0  0  0  0
    3.9890   -1.1543    0.0000 C   0  0  0  0  0  4  0  0  0  0  0  0
    3.3252    0.0000    0.0000 C   0  0  0  0  0  4  0  0  0  0  0  0
    1.9915    0.0000    0.0000 C   0  0  0  0  0  4  0  0  0  0  0  0
    1.3277   -1.1543    0.0000 C   0  0  0  0  0  4  0  0  0  0  0  0
    0.0000   -1.1543    0.0000 C   0  0  0  0  0  4  0  0  0  0  0  0
  1  2  1  0  0  0  0 
  2  3  2  0  0  0  0 
  2  4  1  0  0  0  0 
  4  5  2  0  0  0  0 
  5  6  1  0  0  0  0 
  6  7  2  0  0  0  0 
  7  8  1  0  0  0  0 
M  END
> <CDK Fingerprint>
QAABAAAAAgAAAAIAAAAAAAAAAAAAAAAAAAAEAAAAAAAAIGAAAAAAAAAAAAAAAAAgAAAAABAQEAAAAAAAAAAAAAAAAABAAAAAAAAAAAAAAABAAAAAAAAAAAAQAAAAAQAAAEAAAAAAAAAAAAAQAAAAAAAAAABwCAAAAAAAAAAAAA==

> <ActivityOutcome_CPDBAS_Rat>
inactive

$$$$

  CDK     0721101958

 24 28  0  0  0  0  0  0  0  0999 V2000
    4.4425   -7.4016    0.0000 O   0  0  0  0  0  2  0  0  0  0  0  0
    4.4425   -6.0712    0.0000 C   0  0  0  0  0  4  0  0  0  0  0  0
    3.2896   -5.4020    0.0000 C   0  0  0  0  0  4  0  0  0  0  0  0
    2.1366   -6.0712    0.0000 C   0  0  0  0  0  4  0  0  0  0  0  0
    0.9917   -5.4020    0.0000 C   0  0  0  0  0  4  0  0  0  0  0  0
    0.9917   -4.0717    0.0000 C   0  0  0  0  0  4  0  0  0  0  0  0
    2.1366   -3.4105    0.0000 C   0  0  0  0  0  4  0  0  0  0  0  0
    3.2896   -4.0717    0.0000 C   0  0  0  0  0  4  0  0  0  0  0  0
    4.4425   -3.4105    0.0000 O   0  0  0  0  0  2  0  0  0  0  0  0
    5.5955   -4.0717    0.0000 C   0  0  0  0  0  4  0  0  0  0  0  0
    6.7485   -3.4105    0.0000 C   0  0  0  0  0  4  0  0  0  0  0  0
    7.9014   -4.0717    0.0000 C   0  0  0  0  0  4  0  0  0  0  0  0
    7.9014   -5.4020    0.0000 C   0  0  0  0  0  4  0  0  0  0  0  0
    6.7485   -6.0712    0.0000 C   0  0  0  0  0  4  0  0  0  0  0  0
    5.5955   -5.4020    0.0000 C   0  0  0  0  0  4  0  0  0  0  0  0
    6.7485   -7.4016    0.0000 O   0  0  0  0  0  2  0  0  0  0  0  0
    1.8625   -2.1044    0.0000 C   0  0  0  0  0  4  0  0  0  0  0  0
    0.5402   -1.9673    0.0000 C   0  0  0  0  0  4  0  0  0  0  0  0
    0.0000   -3.1848    0.0000 O   0  0  0  0  0  2  0  0  0  0  0  0
    0.2661   -0.6611    0.0000 O   0  0  0  0  0  2  0  0  0  0  0  0
    1.4190    0.0000    0.0000 C   0  0  0  0  0  4  0  0  0  0  0  0
    2.4027   -0.8869    0.0000 C   0  0  0  0  0  4  0  0  0  0  0  0
    2.1366   -7.4016    0.0000 O   0  0  0  0  0  2  0  0  0  0  0  0
    0.9917   -8.0627    0.0000 C   0  0  0  0  0  4  0  0  0  0  0  0
  1  2  2  0  0  0  0 
  2  3  1  0  0  0  0 
  2 15  1  0  0  0  0 
  3  4  2  0  0  0  0 
  3  8  1  0  0  0  0 
  4  5  1  0  0  0  0 
  4 23  1  0  0  0  0 
  5  6  2  0  0  0  0 
  6  7  1  0  0  0  0 
  6 19  1  0  0  0  0 
  7  8  2  0  0  0  0 
  7 17  1  0  0  0  0 
  8  9  1  0  0  0  0 
  9 10  1  0  0  0  0 
 10 11  2  0  0  0  0 
 10 15  1  0  0  0  0 
 11 12  1  0  0  0  0 
 12 13  2  0  0  0  0 
 13 14  1  0  0  0  0 
 14 15  2  0  0  0  0 
 14 16  1  0  0  0  0 
 17 18  1  0  0  0  0 
 17 22  1  0  0  0  0 
 18 19  1  0  0  0  0 
 18 20  1  0  0  0  0 
 20 21  1  0  0  0  0 
 21 22  2  0  0  0  0 
 23 24  1  0  0  0  0 
M  END
> <CDK Fingerprint>
AIhAAgIAAgOEQkCAAkaYkERYgZASFoUUSICUCqJyAG4CbhxjaRJAAgeqAIBs6jAAEDgWJCBUgFQFRgkEClAAIUYQDhwAAY6CQYkQMBQioSbXDnAJQgEAKEAE0DPAIAKAACACQkHAICYgIQgwFkyKLAbxOzQJsjEoQWMCMIcgIEgB

> <ActivityOutcome_CPDBAS_Rat>
active

> <TD50_Rat_mmol>
0.000469

$$$$

  CDK     0721101958

 56 62  0  0  0  0  0  0  0  0999 V2000
    3.3608  -12.6687    0.0000 C   0  0  0  0  0  4  0  0  0  0  0  0
    8.8549   -9.4832    0.0000 C   0  0  0  0  0  4  0  0  0  0  0  0
    6.7069   -9.4832    0.0000 C   0  0  0  0  0  4  0  0  0  0  0  0
    9.9654   -7.5837    0.0000 C   0  0  0  0  0  4  0  0  0  0  0  0
    2.2503  -13.3116    0.0000 C   0  0  0  0  0  4  0  0  0  0  0  0
    1.1105  -12.6687    0.0000 C   0  0  0  0  0  4  0  0  0  0  0  0
    5.6256  -12.5810    0.0000 C   0  0  0  0  0  4  0  0  0  0  0  0
    6.7069  -10.7253    0.0000 C   0  0  0  0  0  4  0  0  0  0  0  0
    5.6256  -11.3682    0.0000 C   0  0  0  0  0  4  0  0  0  0  0  0
    3.3608  -11.3682    0.0000 O   0  0  0  0  0  2  0  0  0  0  0  0
    7.7590   -8.8987    0.0000 C   0  0  0  0  0  4  0  0  0  0  0  0
    4.5297  -13.2678    0.0000 O   0  0  0  0  0  2  0  0  0  0  0  0
    1.1105  -11.3682    0.0000 C   0  0  0  0  0  4  0  0  0  0  0  0
   11.2513   -7.5837    0.0000 C   0  0  0  0  0  4  0  0  0  0  0  0
    2.2503  -10.7253    0.0000 C   0  0  0  0  0  4  0  0  0  0  0  0
    9.9654   -8.8987    0.0000 C   0  0  0  0  0  4  0  0  0  0  0  0
   11.2513   -9.4832    0.0000 C   0  0  0  0  0  4  0  0  0  0  0  0
    7.7590  -11.3682    0.0000 C   0  0  0  0  0  4  0  0  0  0  0  0
    7.7590   -7.5837    0.0000 C   0  0  0  0  0  4  0  0  0  0  0  0
    8.8549  -10.7253    0.0000 C   0  0  0  0  0  4  0  0  0  0  0  0
    8.8549   -6.9846    0.0000 C   0  0  0  0  0  4  0  0  0  0  0  0
    6.6777  -13.2093    0.0000 O   0  0  0  0  0  2  0  0  0  0  0  0
   11.9527   -6.6047    0.0000 C   0  0  0  0  0  4  0  0  0  0  0  0
    2.2503  -14.6121    0.0000 O   0  0  0  0  0  2  0  0  0  0  0  0
    0.0000  -13.3116    0.0000 O   0  0  0  0  0  2  0  0  0  0  0  0
    0.0000  -10.7253    0.0000 O   0  0  0  0  0  2  0  0  0  0  0  0
    5.6256   -8.8987    0.0000 C   0  0  0  0  0  4  0  0  0  0  0  0
    6.7069   -8.2704    0.0000 C   0  0  0  0  0  4  0  0  0  0  0  0
    4.5297  -10.7106    0.0000 C   0  0  0  0  0  4  0  0  0  0  0  0
    2.2503   -9.4394    0.0000 C   0  0  0  0  0  4  0  0  0  0  0  0
    4.5590  -11.8796    0.0000 C   0  0  0  0  0  4  0  0  0  0  0  0
    1.1105   -8.7818    0.0000 O   0  0  0  0  0  2  0  0  0  0  0  0
    4.5297   -9.4832    0.0000 C   0  0  0  0  0  4  0  0  0  0  0  0
    9.9070   -4.8804    0.0000 C   0  0  0  0  0  4  0  0  0  0  0  0
    8.6942   -4.1937    0.0000 C   0  0  0  0  0  4  0  0  0  0  0  0
   11.1198   -4.1937    0.0000 O   0  0  0  0  0  2  0  0  0  0  0  0
    8.6942   -2.7909    0.0000 C   0  0  0  0  0  4  0  0  0  0  0  0
   11.1198   -2.7909    0.0000 C   0  0  0  0  0  4  0  0  0  0  0  0
    9.9070   -2.0895    0.0000 C   0  0  0  0  0  4  0  0  0  0  0  0
    9.9070   -6.2686    0.0000 O   0  0  0  0  0  2  0  0  0  0  0  0
    7.4814   -4.8804    0.0000 O   0  0  0  0  0  2  0  0  0  0  0  0
    7.4814   -2.0895    0.0000 O   0  0  0  0  0  2  0  0  0  0  0  0
    9.9070   -0.6868    0.0000 O   0  0  0  0  0  2  0  0  0  0  0  0
   12.3180   -2.0895    0.0000 C   0  0  0  0  0  4  0  0  0  0  0  0
   12.3180   -0.6868    0.0000 O   0  0  0  0  0  2  0  0  0  0  0  0
    6.2686   -4.1937    0.0000 C   0  0  0  0  0  4  0  0  0  0  0  0
    5.0704   -4.8804    0.0000 C   0  0  0  0  0  4  0  0  0  0  0  0
    6.2686   -2.7909    0.0000 O   0  0  0  0  0  2  0  0  0  0  0  0
    3.8722   -4.1937    0.0000 C   0  0  0  0  0  4  0  0  0  0  0  0
    5.0704   -2.0895    0.0000 C   0  0  0  0  0  4  0  0  0  0  0  0
    3.8722   -2.7909    0.0000 C   0  0  0  0  0  4  0  0  0  0  0  0
    5.0704   -6.2686    0.0000 O   0  0  0  0  0  2  0  0  0  0  0  0
    2.6594   -4.8804    0.0000 O   0  0  0  0  0  2  0  0  0  0  0  0
    2.6594   -2.0895    0.0000 O   0  0  0  0  0  2  0  0  0  0  0  0
    5.0704   -0.6868    0.0000 C   0  0  0  0  0  4  0  0  0  0  0  0
    3.8722    0.0000    0.0000 O   0  0  0  0  0  2  0  0  0  0  0  0
  1 12  1  1  0  0  0 
  1  5  1  0  0  0  0 
  1 10  1  0  0  0  0 
  2 16  1  0  0  0  0 
  2 20  1  0  0  0  0 
  2 17  1  1  0  0  0 
  2 11  1  0  0  0  0 
  3 11  1  0  0  0  0 
  3  8  1  0  0  0  0 
  3 27  1  0  0  0  0 
  3 28  1  6  0  0  0 
  4 14  1  1  0  0  0 
  4 16  1  0  0  0  0 
  4 21  1  0  0  0  0 
  4 40  1  6  0  0  0 
  5  6  1  0  0  0  0 
  5 24  1  6  0  0  0 
  6 25  1  1  0  0  0 
  6 13  1  0  0  0  0 
  9  7  1  6  0  0  0 
  7 12  1  0  0  0  0 
  7 22  2  0  0  0  0 
  8  9  1  0  0  0  0 
  8 18  1  0  0  0  0 
  9 31  1  1  0  0  0 
  9 29  1  0  0  0  0 
 10 15  1  0  0  0  0 
 11 19  1  0  0  0  0 
 13 15  1  0  0  0  0 
 13 26  1  6  0  0  0 
 14 17  1  0  0  0  0 
 14 23  2  0  0  0  0 
 15 30  1  1  0  0  0 
 18 20  1  0  0  0  0 
 19 21  1  0  0  0  0 
 27 33  1  0  0  0  0 
 29 33  1  0  0  0  0 
 30 32  1  0  0  0  0 
 34 35  1  0  0  0  0 
 34 36  1  0  0  0  0 
 34 40  1  1  0  0  0 
 35 37  1  0  0  0  0 
 35 41  1  6  0  0  0 
 36 38  1  0  0  0  0 
 37 39  1  0  0  0  0 
 37 42  1  1  0  0  0 
 38 39  1  0  0  0  0 
 38 44  1  1  0  0  0 
 39 43  1  6  0  0  0 
 46 41  1  1  0  0  0 
 44 45  1  0  0  0  0 
 46 47  1  0  0  0  0 
 46 48  1  0  0  0  0 
 47 49  1  0  0  0  0 
 47 52  1  6  0  0  0 
 48 50  1  0  0  0  0 
 49 51  1  0  0  0  0 
 49 53  1  1  0  0  0 
 50 51  1  0  0  0  0 
 50 55  1  1  0  0  0 
 51 54  1  6  0  0  0 
 55 56  1  0  0  0  0 
M  END
> <CDK Fingerprint>
JPCEAAAAAkE4ABSDFRQEABA0AAgIBAEQwhAABYEAAAAREUhgRIgAAAAgBAUhEAB4JAIiAESQGBJhAAAmQGQAgACAAGAAAgHoEAQGAFRAEQACAQAIQCQEQARBEQACAEIAAABIRYAARAAAgAAAABAAASEAAAEA2DCgACAAAAQBgCA=

> <ActivityOutcome_CPDBAS_Rat>
inactive

$$$$

  CDK     0721101958

 18 18  0  0  0  0  0  0  0  0999 V2000
    5.3141   -2.3031    0.0000 C   0  0  0  0  0  4  0  0  0  0  0  0
    3.9880   -2.3031    0.0000 N   0  0  0  0  0  3  0  0  0  0  0  0
    3.3200   -1.1565    0.0000 C   0  0  0  0  0  4  0  0  0  0  0  0
    1.9940   -1.1565    0.0000 N   0  0  0  0  0  3  0  0  0  0  0  0
    1.3260   -2.3031    0.0000 N   0  0  0  0  0  3  0  0  0  0  0  0
    0.0000   -2.3031    0.0000 O   0  0  0  0  0  2  0  0  0  0  0  0
    1.3260    0.0000    0.0000 C   0  0  0  0  0  4  0  0  0  0  0  0
    3.9880    0.0000    0.0000 O   0  0  0  0  0  2  0  0  0  0  0  0
    5.9821   -1.1565    0.0000 C   0  0  0  0  0  4  0  0  0  0  0  0
    7.3081   -1.1565    0.0000 C   0  0  0  0  0  4  0  0  0  0  0  0
    7.9761    0.0000    0.0000 O   0  0  0  0  0  2  0  0  0  0  0  0
    7.9761   -2.3031    0.0000 C   0  0  0  0  0  4  0  0  0  0  0  0
    7.3081   -3.4596    0.0000 O   0  0  0  0  0  2  0  0  0  0  0  0
    5.9821   -3.4596    0.0000 C   0  0  0  0  0  4  0  0  0  0  0  0
    5.3141   -4.6062    0.0000 O   0  0  0  0  0  2  0  0  0  0  0  0
    9.3021   -2.3031    0.0000 C   0  0  0  0  0  4  0  0  0  0  0  0
    9.9701   -3.4596    0.0000 O   0  0  0  0  0  2  0  0  0  0  0  0
    5.3141    0.0000    0.0000 O   0  0  0  0  0  2  0  0  0  0  0  0
  1  2  1  6  0  0  0 
  1  9  1  0  0  0  0 
  1 14  1  0  0  0  0 
  2  3  1  0  0  0  0 
  3  4  1  0  0  0  0 
  3  8  2  0  0  0  0 
  4  5  1  0  0  0  0 
  4  7  1  0  0  0  0 
  5  6  2  0  0  0  0 
  9 10  1  0  0  0  0 
  9 18  1  1  0  0  0 
 10 11  1  6  0  0  0 
 10 12  1  0  0  0  0 
 12 13  1  0  0  0  0 
 12 16  1  1  0  0  0 
 13 14  1  0  0  0  0 
 14 15  1  6  0  0  0 
 16 17  1  0  0  0  0 
M  END
> <CDK Fingerprint>
AIAGAAkAAEASEABLBBUAAJ0QAAAAAAEQwEAEACAAAAQUAyBgRIACgAAEgAAIAIEYJiJjAAKgAOAAAAFAw2IAAoAAAAABAABBAAAAAEAABMABAUBCIKhAQBVIEQAAAEIAAABkYAABAAABAAAgARAAACAAQAQAQHQAAAAYAAoLAAA=

> <ActivityOutcome_CPDBAS_Rat>
active

> <TD50_Rat_mmol>
0.00363

$$$$

  CDK     0721101958

  8  8  0  0  0  0  0  0  0  0999 V2000
    0.0000    0.0000    0.0000 C   0  0  0  0  0  4  0  0  0  0  0  0
    0.6654   -1.1540    0.0000 C   0  0  0  0  0  4  0  0  0  0  0  0
    1.9962   -1.1540    0.0000 C   0  0  0  0  0  4  0  0  0  0  0  0
    2.6569    0.0000    0.0000 C   0  0  0  0  0  4  0  0  0  0  0  0
    3.9877    0.0000    0.0000 C   0  0  0  0  0  4  0  0  0  0  0  0
    4.6531   -1.1540    0.0000 C   0  0  0  0  0  4  0  0  0  0  0  0
    3.9877   -2.3033    0.0000 C   0  0  0  0  0  4  0  0  0  0  0  0
    2.6569   -2.3033    0.0000 C   0  0  0  0  0  4  0  0  0  0  0  0
  1  2  2  0  0  0  0 
  2  3  1  0  0  0  0 
  3  4  2  0  0  0  0 
  3  8  1  0  0  0  0 
  4  5  1  0  0  0  0 
  5  6  2  0  0  0  0 
  6  7  1  0  0  0  0 
  7  8  2  0  0  0  0 
M  END
> <CDK Fingerprint>
QAAAEAAAAAAAAAAAAAAAAAAAAAAAAAAAAAAAAAgAAAAAAEAAAAAAAAAAAAAAAAAgAAAAAAAQAEAAAAAAAAAAAAQAAAAAABAAAAAAAAAAAAAAAAAAAAAAAIAAAAAAgAAgAAAAQCAAAAAAAAJAAAgAAAAAAIAAAAAAAAAAAAAAAA==

> <ActivityOutcome_CPDBAS_Rat>
active

> <TD50_Rat_mmol>
0.224

$$$$

  CDK     0721101958

  9 10  0  0  0  0  0  0  0  0999 V2000
    0.0000   -0.4886    0.0000 C   0  0  0  0  0  4  0  0  0  0  0  0
    1.1521   -1.1521    0.0000 C   0  0  0  0  0  4  0  0  0  0  0  0
    2.4842   -1.1521    0.0000 C   0  0  0  0  0  4  0  0  0  0  0  0
    3.1476    0.0000    0.0000 C   0  0  0  0  0  4  0  0  0  0  0  0
    4.4797    0.0000    0.0000 C   0  0  0  0  0  4  0  0  0  0  0  0
    5.1432   -1.1521    0.0000 C   0  0  0  0  0  4  0  0  0  0  0  0
    4.4797   -2.3042    0.0000 C   0  0  0  0  0  4  0  0  0  0  0  0
    3.1476   -2.3042    0.0000 C   0  0  0  0  0  4  0  0  0  0  0  0
    0.0000   -1.8155    0.0000 O   0  0  0  0  0  2  0  0  0  0  0  0
  1  2  1  0  0  0  0 
  1  9  1  0  0  0  0 
  2  3  1  0  0  0  0 
  2  9  1  0  0  0  0 
  3  4  2  0  0  0  0 
  3  8  1  0  0  0  0 
  4  5  1  0  0  0  0 
  5  6  2  0  0  0  0 
  6  7  1  0  0  0  0 
  7  8  2  0  0  0  0 
M  END
> <CDK Fingerprint>
AgAAAAAAAAAAAAACAAAAAAABAAAAAAAAgAQAAAAAAAAIAABgAAAAAAAAAAAAAAAQIAIAAAAAACBAAAAAQAAAAAAMCAAAAAAAAAAAAAAABAAAAgAAAAAAAACAEAAAAoAAIAAAAEAgBAAAAAACQAgECACAFACAAAAAAAEAAAAAQAA=

> <ActivityOutcome_CPDBAS_Rat>
active

> <TD50_Rat_mmol>
0.461

$$$$

  CDK     0721101958

  7  7  0  0  0  0  0  0  0  0999 V2000
    4.4520   -2.5243    0.0000 O   0  0  0  0  0  2  0  0  0  0  0  0
    3.3746   -1.7407    0.0000 C   0  0  0  0  0  4  0  0  0  0  0  0
    2.1102   -2.1548    0.0000 O   0  0  0  0  0  2  0  0  0  0  0  0
    1.3311   -1.0774    0.0000 C   0  0  0  0  0  4  0  0  0  0  0  0
    0.0000   -1.0774    0.0000 O   0  0  0  0  0  2  0  0  0  0  0  0
    2.1102    0.0000    0.0000 C   0  0  0  0  0  4  0  0  0  0  0  0
    3.3746   -0.4140    0.0000 C   0  0  0  0  0  4  0  0  0  0  0  0
  1  2  2  0  0  0  0 
  2  3  1  0  0  0  0 
  2  7  1  0  0  0  0 
  3  4  1  0  0  0  0 
  4  5  2  0  0  0  0 
  4  6  1  0  0  0  0 
  6  7  1  0  0  0  0 
M  END
> <CDK Fingerprint>
AIAAAAAAAAAAAAIAAAAAAAAAAAAAAACAAAAAgAAAAAQAAGAAgAIAAAAAAAAAAFAgAgAAAAAAAAAAACBAAAAAAAgAAAAAAAAAAAAAAAAAAAAAAAAAAABAAAAQAAAAAAAAAEAAAAAAAAAAAAAAEAABAAAAAABQEAAAAAAAAAAAAA==

> <ActivityOutcome_CPDBAS_Rat>
inactive

$$$$

  CDK     0721101958

 59 60  0  0  0  0  0  0  0  0999 V2000
   10.4913   -9.2225    0.0000 C   0  0  0  0  0  4  0  0  0  0  0  0
   11.6843   -9.3172    0.0000 O   0  0  0  0  0  2  0  0  0  0  0  0
    9.8285  -10.2072    0.0000 C   0  0  0  0  0  4  0  0  0  0  0  0
    8.6165  -10.1125    0.0000 C   0  0  0  0  0  4  0  0  0  0  0  0
   10.3398  -11.2866    0.0000 C   0  0  0  0  0  4  0  0  0  0  0  0
    7.1772   -9.0710    0.0000 C   0  0  0  0  0  4  0  0  0  0  0  0
    8.3514   -8.9005    0.0000 O   0  0  0  0  0  2  0  0  0  0  0  0
    6.7417  -10.1883    0.0000 C   0  0  0  0  0  4  0  0  0  0  0  0
    5.5676  -10.3777    0.0000 C   0  0  0  0  0  4  0  0  0  0  0  0
    7.4992  -11.1351    0.0000 C   0  0  0  0  0  4  0  0  0  0  0  0
    3.7117   -7.8969    0.0000 C   0  0  0  0  0  4  0  0  0  0  0  0
    4.7533   -8.4839    0.0000 O   0  0  0  0  0  2  0  0  0  0  0  0
    2.6702   -8.5029    0.0000 C   0  0  0  0  0  4  0  0  0  0  0  0
    1.6286   -7.9158    0.0000 C   0  0  0  0  0  4  0  0  0  0  0  0
    2.6891   -9.6959    0.0000 C   0  0  0  0  0  4  0  0  0  0  0  0
    2.4619   -4.5450    0.0000 C   0  0  0  0  0  4  0  0  0  0  0  0
    2.4619   -5.9842    0.0000 O   0  0  0  0  0  2  0  0  0  0  0  0
    1.2309   -3.8443    0.0000 C   0  0  0  0  0  4  0  0  0  0  0  0
    1.2309   -2.4240    0.0000 C   0  0  0  0  0  4  0  0  0  0  0  0
    0.0000   -4.5639    0.0000 C   0  0  0  0  0  4  0  0  0  0  0  0
    5.1320   -0.6060    0.0000 C   0  0  0  0  0  4  0  0  0  0  0  0
    6.1925    0.0000    0.0000 O   0  0  0  0  0  2  0  0  0  0  0  0
    4.0905    0.0000    0.0000 C   0  0  0  0  0  4  0  0  0  0  0  0
   10.4345   -5.9274    0.0000 C   0  0  0  0  0  4  0  0  0  0  0  0
    7.4234   -5.9842    0.0000 C   0  0  0  0  0  4  0  0  0  0  0  0
   10.8511   -7.2909    0.0000 C   0  0  0  0  0  4  0  0  0  0  0  0
    6.1925   -6.7038    0.0000 C   0  0  0  0  0  4  0  0  0  0  0  0
   11.5896   -5.0941    0.0000 O   0  0  0  0  0  2  0  0  0  0  0  0
    9.0331   -6.8553    0.0000 O   0  0  0  0  0  2  0  0  0  0  0  0
    4.9237   -5.9842    0.0000 C   0  0  0  0  0  4  0  0  0  0  0  0
    7.4234   -4.5450    0.0000 O   0  0  0  0  0  2  0  0  0  0  0  0
   12.2903   -7.2909    0.0000 C   0  0  0  0  0  4  0  0  0  0  0  0
    4.9237   -4.5450    0.0000 C   0  0  0  0  0  4  0  0  0  0  0  0
   12.7448   -5.9274    0.0000 C   0  0  0  0  0  4  0  0  0  0  0  0
    6.1925   -3.8443    0.0000 C   0  0  0  0  0  4  0  0  0  0  0  0
    9.4876   -4.8669    0.0000 C   0  0  0  0  0  4  0  0  0  0  0  0
   10.0178   -8.4460    0.0000 O   0  0  0  0  0  2  0  0  0  0  0  0
    6.4198   -8.1430    0.0000 O   0  0  0  0  0  2  0  0  0  0  0  0
    3.6928   -6.7038    0.0000 O   0  0  0  0  0  2  0  0  0  0  0  0
   13.1425   -8.4460    0.0000 O   0  0  0  0  0  2  0  0  0  0  0  0
    3.6928   -3.8443    0.0000 O   0  0  0  0  0  2  0  0  0  0  0  0
   14.0894   -5.4918    0.0000 C   0  0  0  0  0  4  0  0  0  0  0  0
    6.1925   -2.4050    0.0000 C   0  0  0  0  0  4  0  0  0  0  0  0
    9.8853   -3.6360    0.0000 O   0  0  0  0  0  2  0  0  0  0  0  0
   15.1499   -6.4387    0.0000 O   0  0  0  0  0  2  0  0  0  0  0  0
    5.1320   -1.7990    0.0000 O   0  0  0  0  0  2  0  0  0  0  0  0
   11.0594   -3.3898    0.0000 C   0  0  0  0  0  4  0  0  0  0  0  0
   11.4192   -2.2535    0.0000 O   0  0  0  0  0  2  0  0  0  0  0  0
   11.8548   -4.2988    0.0000 C   0  0  0  0  0  4  0  0  0  0  0  0
   14.3166   -8.7301    0.0000 C   0  0  0  0  0  4  0  0  0  0  0  0
   15.1309   -7.8590    0.0000 O   0  0  0  0  0  2  0  0  0  0  0  0
   14.6385   -9.8853    0.0000 C   0  0  0  0  0  4  0  0  0  0  0  0
   13.8053  -10.7375    0.0000 C   0  0  0  0  0  4  0  0  0  0  0  0
   15.7937  -10.1693    0.0000 C   0  0  0  0  0  4  0  0  0  0  0  0
   16.5133   -5.9842    0.0000 C   0  0  0  0  0  4  0  0  0  0  0  0
   16.7974   -4.6018    0.0000 O   0  0  0  0  0  2  0  0  0  0  0  0
   17.5738   -6.9500    0.0000 C   0  0  0  0  0  4  0  0  0  0  0  0
   17.2898   -8.3514    0.0000 C   0  0  0  0  0  4  0  0  0  0  0  0
   18.9373   -6.4955    0.0000 C   0  0  0  0  0  4  0  0  0  0  0  0
  1  2  2  0  0  0  0 
  1  3  1  0  0  0  0 
  1 37  1  0  0  0  0 
  3  4  1  0  0  0  0 
  3  5  1  0  0  0  0 
  6  7  2  0  0  0  0 
  6  8  1  0  0  0  0 
  6 38  1  0  0  0  0 
  8  9  1  0  0  0  0 
  8 10  1  0  0  0  0 
 11 12  2  0  0  0  0 
 11 13  1  0  0  0  0 
 11 39  1  0  0  0  0 
 13 14  1  0  0  0  0 
 13 15  1  0  0  0  0 
 16 17  2  0  0  0  0 
 16 18  1  0  0  0  0 
 16 41  1  0  0  0  0 
 18 19  1  0  0  0  0 
 18 20  1  0  0  0  0 
 21 22  2  0  0  0  0 
 21 23  1  0  0  0  0 
 21 46  1  0  0  0  0 
 24 26  1  0  0  0  0 
 24 28  1  0  0  0  0 
 24 29  1  6  0  0  0 
 24 36  1  1  0  0  0 
 25 29  1  6  0  0  0 
 25 27  1  0  0  0  0 
 25 31  1  0  0  0  0 
 26 32  1  0  0  0  0 
 26 37  1  6  0  0  0 
 27 30  1  0  0  0  0 
 27 38  1  6  0  0  0 
 28 34  1  0  0  0  0 
 30 39  1  1  0  0  0 
 30 33  1  0  0  0  0 
 31 35  1  0  0  0  0 
 32 40  1  1  0  0  0 
 32 34  1  0  0  0  0 
 33 35  1  0  0  0  0 
 33 41  1  6  0  0  0 
 34 42  1  6  0  0  0 
 35 43  1  1  0  0  0 
 36 44  1  0  0  0  0 
 40 50  1  0  0  0  0 
 42 45  1  0  0  0  0 
 43 46  1  0  0  0  0 
 44 47  1  0  0  0  0 
 45 55  1  0  0  0  0 
 47 48  2  0  0  0  0 
 47 49  1  0  0  0  0 
 50 51  2  0  0  0  0 
 50 52  1  0  0  0  0 
 52 53  1  0  0  0  0 
 52 54  1  0  0  0  0 
 55 56  2  0  0  0  0 
 55 57  1  0  0  0  0 
 57 58  1  0  0  0  0 
 57 59  1  0  0  0  0 
M  END
> <CDK Fingerprint>
AKSAhAAAAAADOAAVg8QUAAIQNAAIGAwBEMAAAAWgAAAAEAEA4ESAAAAAIAQFAQAAWCQCIgAUgAgCYQCAIEBgAMAAgABAAAIBwBIkAABUQBAYAAAACUAgBEAEQREAAABCoAAASGUAAAQAAIAAAAAQAAEgAAABAFqw5AAoAAIAAQAA

> <ActivityOutcome_CPDBAS_Rat>
inactive

$$$$

  CDK     0721101958

 12 11  0  0  0  0  0  0  0  0999 V2000
    2.3006   -3.9862    0.0000 S   0  0  0  0  0  2  0  0  0  0  0  0
    2.3006   -2.6598    0.0000 C   0  0  0  0  0  4  0  0  0  0  0  0
    1.1537   -1.9897    0.0000 N   0  0  0  0  0  3  0  0  0  0  0  0
    1.1537   -0.6632    0.0000 C   0  0  0  0  0  4  0  0  0  0  0  0
    0.0000    0.0000    0.0000 C   0  0  0  0  0  4  0  0  0  0  0  0
    0.0000   -2.6598    0.0000 C   0  0  0  0  0  4  0  0  0  0  0  0
    0.0000   -3.9862    0.0000 C   0  0  0  0  0  4  0  0  0  0  0  0
    3.4543   -1.9897    0.0000 S   0  0  0  0  0  2  0  0  0  0  0  0
    4.6080   -2.6598    0.0000 C   0  0  0  0  0  4  0  0  0  0  0  0
    5.7548   -1.9897    0.0000 C   0  0  0  0  0  4  0  0  0  0  0  0
    5.7548   -0.6632    0.0000 C   0  0  0  0  0  4  0  0  0  0  0  0
    6.9086   -2.6598    0.0000 Cl  0  0  0  0  0  1  0  0  0  0  0  0
  1  2  2  0  0  0  0 
  2  3  1  0  0  0  0 
  2  8  1  0  0  0  0 
  3  4  1  0  0  0  0 
  3  6  1  0  0  0  0 
  4  5  1  0  0  0  0 
  6  7  1  0  0  0  0 
  8  9  1  0  0  0  0 
  9 10  1  0  0  0  0 
 10 11  2  0  0  0  0 
 10 12  1  0  0  0  0 
M  END
> <CDK Fingerprint>
QBAAAgAAAAIAAAAAgAAAAAAAAAAAAAAAAAEAAAAAAAAAAeAAAAAEAAAAAAAIAAAgAAIAgwAQACAAQASAAACBAAAABAAAAAAQAIAAgAAAgAAAAADBAQgEABAAAAAgAAAAAAAAAAAAAAAAAACAAAAAICIAAACAAAABAAGAAAoAAA==

> <ActivityOutcome_CPDBAS_Rat>
active

> <TD50_Rat_mmol>
0.117

$$$$

  CDK     0721101958

 18 19  0  0  0  0  0  0  0  0999 V2000
    3.9690   -4.1553    0.0000 O   0  0  0  0  0  2  0  0  0  0  0  0
    5.1192   -3.4911    0.0000 S   0  0  0  0  0  6  0  0  0  0  0  0
    6.2694   -2.8269    0.0000 O   0  0  0  0  0  2  0  0  0  0  0  0
    5.7834   -4.6413    0.0000 C   0  0  0  0  0  4  0  0  0  0  0  0
    5.1192   -5.7996    0.0000 C   0  0  0  0  0  4  0  0  0  0  0  0
    5.7834   -6.9498    0.0000 C   0  0  0  0  0  4  0  0  0  0  0  0
    7.1118   -6.9498    0.0000 C   0  0  0  0  0  4  0  0  0  0  0  0
    7.7760   -5.7996    0.0000 C   0  0  0  0  0  4  0  0  0  0  0  0
    7.1118   -4.6413    0.0000 C   0  0  0  0  0  4  0  0  0  0  0  0
    7.7760   -8.1001    0.0000 N   0  0  0  0  0  3  0  0  0  0  0  0
    4.4550   -2.3409    0.0000 N   0  0  0  0  0  3  0  0  0  0  0  0
    3.1266   -2.3409    0.0000 C   0  0  0  0  0  4  0  0  0  0  0  0
    2.3409   -1.2636    0.0000 C   0  0  0  0  0  4  0  0  0  0  0  0
    1.0773   -1.6767    0.0000 C   0  0  0  0  0  4  0  0  0  0  0  0
    1.0773   -3.0051    0.0000 N   0  0  0  0  0  3  0  0  0  0  0  0
    2.3409   -3.4182    0.0000 O   0  0  0  0  0  2  0  0  0  0  0  0
    0.0000   -0.8910    0.0000 C   0  0  0  0  0  4  0  0  0  0  0  0
    2.7540    0.0000    0.0000 C   0  0  0  0  0  4  0  0  0  0  0  0
  1  2  2  0  0  0  0 
  2  3  2  0  0  0  0 
  2  4  1  0  0  0  0 
  2 11  1  0  0  0  0 
  4  5  2  0  0  0  0 
  4  9  1  0  0  0  0 
  5  6  1  0  0  0  0 
  6  7  2  0  0  0  0 
  7  8  1  0  0  0  0 
  7 10  1  0  0  0  0 
  8  9  2  0  0  0  0 
 11 12  1  0  0  0  0 
 12 13  2  0  0  0  0 
 12 16  1  0  0  0  0 
 13 14  1  0  0  0  0 
 13 18  1  0  0  0  0 
 14 15  2  0  0  0  0 
 14 17  1  0  0  0  0 
 15 16  1  0  0  0  0 
M  END
> <CDK Fingerprint>
MIAOIIAKJSIwEAgAAAgBAAFACgQMEEAIABgSAIQAIoAAGWwhAAABAgAAeQAAAABgAHkAIBAAEEAKAAAAAJEhACAAAAACEQEFQAaIIAgCAABCAAuAAIaAgqHAAAgIgYAgQEAA0KAgIMAABQIQEACgAIQAgJEgICABAAQKAE4YAA==

> <ActivityOutcome_CPDBAS_Rat>
inactive

$$$$

  CDK     0721101958

  7  7  0  0  0  0  0  0  0  0999 V2000
    1.1893   -3.1857    0.0000 O   0  0  0  0  0  2  0  0  0  0  0  0
    1.3310   -1.8647    0.0000 S   0  0  0  0  0  6  0  0  0  0  0  0
    0.0000   -1.8647    0.0000 O   0  0  0  0  0  2  0  0  0  0  0  0
    1.1893   -0.5403    0.0000 C   0  0  0  0  0  4  0  0  0  0  0  0
    2.4049    0.0000    0.0000 C   0  0  0  0  0  4  0  0  0  0  0  0
    3.2944   -0.9883    0.0000 C   0  0  0  0  0  4  0  0  0  0  0  0
    2.6290   -2.1414    0.0000 C   0  0  0  0  0  4  0  0  0  0  0  0
  1  2  2  0  0  0  0 
  2  3  2  0  0  0  0 
  2  4  1  0  0  0  0 
  2  7  1  0  0  0  0 
  4  5  1  0  0  0  0 
  5  6  2  0  0  0  0 
  6  7  1  0  0  0  0 
M  END
> <CDK Fingerprint>
QAAAAAAAAgAAAAAAAAAACAAAAAAAAAAAAAAAAAAAAAAAAWAAAAAEAAAAAAAAAAAgAAAAAAAQAAAAAAAAAAAAAAAAAAAAEAAAAAAAIAAAAAAAAACACAgAAAEAAAAAAAAAAAAAAAAAAAAAAACAABAgACAAAACACAAAAAAAAAAAAA==

> <ActivityOutcome_CPDBAS_Rat>
inactive

$$$$

  CDK     0721101958

 23 24  0  0  0  0  0  0  0  0999 V2000
    0.0000   -2.3040    0.0000 C   0  0  0  0  0  4  0  0  0  0  0  0
    0.6682   -1.1520    0.0000 C   0  0  0  0  0  4  0  0  0  0  0  0
    0.0000    0.0000    0.0000 O   0  0  0  0  0  2  0  0  0  0  0  0
    1.9929   -1.1520    0.0000 N   0  0  0  0  0  3  0  0  0  0  0  0
    2.6611   -2.3040    0.0000 C   0  0  0  0  0  4  0  0  0  0  0  0
    3.9859   -2.3040    0.0000 C   0  0  0  0  0  4  0  0  0  0  0  0
    4.6540   -3.4560    0.0000 C   0  0  0  0  0  4  0  0  0  0  0  0
    3.9859   -4.6080    0.0000 C   0  0  0  0  0  4  0  0  0  0  0  0
    2.6611   -4.6080    0.0000 C   0  0  0  0  0  4  0  0  0  0  0  0
    1.9929   -3.4560    0.0000 C   0  0  0  0  0  4  0  0  0  0  0  0
    4.6540   -5.7600    0.0000 S   0  0  0  0  0  6  0  0  0  0  0  0
    3.5021   -6.4281    0.0000 O   0  0  0  0  0  2  0  0  0  0  0  0
    5.8060   -5.0918    0.0000 O   0  0  0  0  0  2  0  0  0  0  0  0
    5.3222   -6.9120    0.0000 C   0  0  0  0  0  4  0  0  0  0  0  0
    4.6540   -8.0639    0.0000 C   0  0  0  0  0  4  0  0  0  0  0  0
    5.3222   -9.2159    0.0000 C   0  0  0  0  0  4  0  0  0  0  0  0
    6.6470   -9.2159    0.0000 C   0  0  0  0  0  4  0  0  0  0  0  0
    7.3151  -10.3679    0.0000 N   0  0  0  0  0  3  0  0  0  0  0  0
    8.6515  -10.3679    0.0000 C   0  0  0  0  0  4  0  0  0  0  0  0
    9.3081  -11.5199    0.0000 C   0  0  0  0  0  4  0  0  0  0  0  0
    9.3081   -9.2159    0.0000 O   0  0  0  0  0  2  0  0  0  0  0  0
    7.3151   -8.0639    0.0000 C   0  0  0  0  0  4  0  0  0  0  0  0
    6.6470   -6.9120    0.0000 C   0  0  0  0  0  4  0  0  0  0  0  0
  1  2  1  0  0  0  0 
  2  3  2  0  0  0  0 
  2  4  1  0  0  0  0 
  4  5  1  0  0  0  0 
  5  6  2  0  0  0  0 
  5 10  1  0  0  0  0 
  6  7  1  0  0  0  0 
  7  8  2  0  0  0  0 
  8  9  1  0  0  0  0 
  8 11  1  0  0  0  0 
  9 10  2  0  0  0  0 
 11 12  2  0  0  0  0 
 11 13  2  0  0  0  0 
 11 14  1  0  0  0  0 
 14 15  2  0  0  0  0 
 14 23  1  0  0  0  0 
 15 16  1  0  0  0  0 
 16 17  2  0  0  0  0 
 17 18  1  0  0  0  0 
 17 22  1  0  0  0  0 
 18 19  1  0  0  0  0 
 19 20  1  0  0  0  0 
 19 21  2  0  0  0  0 
 22 23  2  0  0  0  0 
M  END
> <CDK Fingerprint>
AICgAAAAACAiAAAAAAAAAAABAAAgAABAAQAAEAAMwgIAAAFgAAAABAAAEACAAACAIAAEAAAQAgBAAAAQgASAAMAAQAAAABEAIEAEASSAAJAAICAAgAAAACABABAAAAAAIABQAIIgQAAAAEACgBAAAAAEAACAcCBgAYAEAAADEAA=

> <ActivityOutcome_CPDBAS_Rat>
active

> <TD50_Rat_mmol>
0.167

$$$$

  CDK     0721101958

 26 28  0  0  0  0  0  0  0  0999 V2000
    5.4705   -4.5881    0.0000 C   0  0  0  0  0  4  0  0  0  0  0  0
    3.4117   -3.8823    0.0000 C   0  0  0  0  0  4  0  0  0  0  0  0
    4.7058   -3.5293    0.0000 C   0  0  0  0  0  4  0  0  0  0  0  0
    3.4117   -5.2940    0.0000 C   0  0  0  0  0  4  0  0  0  0  0  0
    4.7058   -5.6469    0.0000 C   0  0  0  0  0  4  0  0  0  0  0  0
    2.2352   -3.2352    0.0000 C   0  0  0  0  0  4  0  0  0  0  0  0
    2.2352   -5.8822    0.0000 C   0  0  0  0  0  4  0  0  0  0  0  0
    1.1176   -5.2940    0.0000 C   0  0  0  0  0  4  0  0  0  0  0  0
    1.1176   -3.8823    0.0000 C   0  0  0  0  0  4  0  0  0  0  0  0
    4.2352   -1.2941    0.0000 C   0  0  0  0  0  4  0  0  0  0  0  0
    4.6470    0.0000    0.0000 O   0  0  0  0  0  2  0  0  0  0  0  0
    2.9411   -1.5294    0.0000 O   0  0  0  0  0  2  0  0  0  0  0  0
    5.1175   -2.2352    0.0000 C   0  0  0  0  0  4  0  0  0  0  0  0
    0.0000   -3.2352    0.0000 F   0  0  0  0  0  1  0  0  0  0  0  0
    6.8234   -4.5881    0.0000 C   0  0  0  0  0  4  0  0  0  0  0  0
    5.1175   -6.8822    0.0000 C   0  0  0  0  0  4  0  0  0  0  0  0
    2.0000   -8.5881    0.0000 C   0  0  0  0  0  4  0  0  0  0  0  0
    2.4117   -9.8233    0.0000 C   0  0  0  0  0  4  0  0  0  0  0  0
    3.7058  -10.1174    0.0000 C   0  0  0  0  0  4  0  0  0  0  0  0
    4.5881   -9.1763    0.0000 C   0  0  0  0  0  4  0  0  0  0  0  0
    4.2352   -7.8822    0.0000 C   0  0  0  0  0  4  0  0  0  0  0  0
    2.8823   -7.5881    0.0000 C   0  0  0  0  0  4  0  0  0  0  0  0
    1.5294  -10.8233    0.0000 S   0  0  0  0  0  6  0  0  0  0  0  0
    0.5294   -9.9410    0.0000 O   0  0  0  0  0  2  0  0  0  0  0  0
    2.4705  -11.7645    0.0000 O   0  0  0  0  0  2  0  0  0  0  0  0
    0.5882  -11.7645    0.0000 C   0  0  0  0  0  4  0  0  0  0  0  0
  1  3  2  0  0  0  0 
  1  5  1  0  0  0  0 
  1 15  1  0  0  0  0 
  2  3  1  0  0  0  0 
  2  4  2  0  0  0  0 
  2  6  1  0  0  0  0 
  3 13  1  0  0  0  0 
  4  5  1  0  0  0  0 
  4  7  1  0  0  0  0 
  5 16  2  0  0  0  0 
  6  9  2  0  0  0  0 
  7  8  2  0  0  0  0 
  8  9  1  0  0  0  0 
  9 14  1  0  0  0  0 
 10 11  2  0  0  0  0 
 10 12  1  0  0  0  0 
 10 13  1  0  0  0  0 
 16 21  1  0  0  0  0 
 17 22  2  0  0  0  0 
 17 18  1  0  0  0  0 
 18 19  2  0  0  0  0 
 18 23  1  0  0  0  0 
 19 20  1  0  0  0  0 
 20 21  2  0  0  0  0 
 21 22  1  0  0  0  0 
 23 24  2  0  0  0  0 
 23 25  2  0  0  0  0 
 23 26  1  0  0  0  0 
M  END
> <CDK Fingerprint>
AUCDABQAAEAAAAKTEAAAAgBLAAGgBIABIIiMBBIIAEQo0IFgEEABAHkABAAAAAKQIJAAAmAQEDBCAAAw6MSAQDAUCowEABAQhUEAACIoIcAAYCAA2xGIFACBEQeUDoIAIwBIAsBgSQAAARACxFYMCwDoHICEVzi0ARQFIDAAAAQ=

> <ActivityOutcome_CPDBAS_Rat>
inactive

$$$$

  CDK     0721101958

 32 34  0  0  0  0  0  0  0  0999 V2000
    3.3092   -3.3835    0.0000 N   0  0  0  0  0  3  0  0  0  0  0  0
    4.6350   -3.3835    0.0000 N   0  0  0  0  0  3  0  0  0  0  0  0
    3.9774   -5.4305    0.0000 C   0  0  0  0  0  4  0  0  0  0  0  0
    5.0274   -4.6456    0.0000 C   0  0  0  0  0  4  0  0  0  0  0  0
    2.8956   -4.6456    0.0000 C   0  0  0  0  0  4  0  0  0  0  0  0
    4.6350   -6.5654    0.0000 C   0  0  0  0  0  4  0  0  0  0  0  0
    5.4199   -2.3016    0.0000 C   0  0  0  0  0  4  0  0  0  0  0  0
    2.4713   -2.3016    0.0000 C   0  0  0  0  0  4  0  0  0  0  0  0
    6.3108   -5.0593    0.0000 O   0  0  0  0  0  2  0  0  0  0  0  0
    1.6440   -5.0593    0.0000 O   0  0  0  0  0  2  0  0  0  0  0  0
    6.6290   -7.7427    0.0000 C   0  0  0  0  0  4  0  0  0  0  0  0
    9.9382   -6.5654    0.0000 C   0  0  0  0  0  4  0  0  0  0  0  0
    5.9608   -6.5654    0.0000 O   0  0  0  0  0  2  0  0  0  0  0  0
    5.9608   -8.8776    0.0000 O   0  0  0  0  0  2  0  0  0  0  0  0
   10.6064   -5.4305    0.0000 O   0  0  0  0  0  2  0  0  0  0  0  0
    3.3092   -6.5654    0.0000 C   0  0  0  0  0  4  0  0  0  0  0  0
    7.9548   -7.7427    0.0000 C   0  0  0  0  0  4  0  0  0  0  0  0
    8.6124   -6.5654    0.0000 C   0  0  0  0  0  4  0  0  0  0  0  0
   10.6064   -7.7427    0.0000 O   0  0  0  0  0  2  0  0  0  0  0  0
    1.1455   -2.3016    0.0000 C   0  0  0  0  0  4  0  0  0  0  0  0
    4.7411   -1.1667    0.0000 C   0  0  0  0  0  4  0  0  0  0  0  0
    6.7457   -2.3016    0.0000 C   0  0  0  0  0  4  0  0  0  0  0  0
    3.1607   -1.1667    0.0000 C   0  0  0  0  0  4  0  0  0  0  0  0
    1.9834   -6.5654    0.0000 C   0  0  0  0  0  4  0  0  0  0  0  0
    1.3258   -7.7427    0.0000 C   0  0  0  0  0  4  0  0  0  0  0  0
    0.0000   -7.7427    0.0000 C   0  0  0  0  0  4  0  0  0  0  0  0
    0.5091   -1.1667    0.0000 C   0  0  0  0  0  4  0  0  0  0  0  0
    5.4199    0.0000    0.0000 C   0  0  0  0  0  4  0  0  0  0  0  0
    7.3927   -1.1667    0.0000 C   0  0  0  0  0  4  0  0  0  0  0  0
    2.4713    0.0000    0.0000 C   0  0  0  0  0  4  0  0  0  0  0  0
    1.1455    0.0000    0.0000 C   0  0  0  0  0  4  0  0  0  0  0  0
    6.7457    0.0000    0.0000 C   0  0  0  0  0  4  0  0  0  0  0  0
  1  2  1  0  0  0  0 
  1  5  1  0  0  0  0 
  1  8  1  0  0  0  0 
  2  4  1  0  0  0  0 
  2  7  1  0  0  0  0 
  3  5  1  0  0  0  0 
  3  6  1  0  0  0  0 
  3 16  1  0  0  0  0 
  3  4  1  0  0  0  0 
  4  9  2  0  0  0  0 
  5 10  2  0  0  0  0 
  6 13  1  0  0  0  0 
  7 21  1  0  0  0  0 
  7 22  2  0  0  0  0 
  8 20  1  0  0  0  0 
  8 23  2  0  0  0  0 
 11 13  1  0  0  0  0 
 11 14  2  0  0  0  0 
 11 17  1  0  0  0  0 
 12 18  1  0  0  0  0 
 12 15  2  0  0  0  0 
 12 19  1  0  0  0  0 
 16 24  1  0  0  0  0 
 17 18  1  0  0  0  0 
 20 27  2  0  0  0  0 
 21 28  2  0  0  0  0 
 22 29  1  0  0  0  0 
 23 30  1  0  0  0  0 
 24 25  1  0  0  0  0 
 25 26  1  0  0  0  0 
 27 31  1  0  0  0  0 
 28 32  1  0  0  0  0 
 29 32  2  0  0  0  0 
 30 31  2  0  0  0  0 
M  END
> <CDK Fingerprint>
AMCAgAgIAAAoKwIIhqABgABQAACkgCBCQMkAAAiBFMhCFRGgYACAEkAAAIABAAAA0igCJiAEgAIA0ADEa8NUAILAQhQAIAIhwAhEAABEgBCwQAAhKiAAVkQgIZAAAAAAAGFAyC0EIwgIABIIJiAYAAGEQAAAhFBQwgiACSQECxgA

> <ActivityOutcome_CPDBAS_Rat>
inactive

$$$$

  CDK     0721101958

 27 28  0  0  0  0  0  0  0  0999 V2000
    1.8242    0.0000    0.0000 C   0  0  0  0  0  4  0  0  0  0  0  0
    2.2425   -1.3013    0.0000 C   0  0  0  0  0  4  0  0  0  0  0  0
    1.3362   -2.3122    0.0000 C   0  0  0  0  0  4  0  0  0  0  0  0
    1.7545   -3.6019    0.0000 C   0  0  0  0  0  4  0  0  0  0  0  0
    0.8366   -4.6244    0.0000 O   0  0  0  0  0  2  0  0  0  0  0  0
    3.0907   -3.8924    0.0000 O   0  0  0  0  0  2  0  0  0  0  0  0
    3.5090   -5.1821    0.0000 C   0  0  0  0  0  4  0  0  0  0  0  0
    4.7987   -5.6120    0.0000 C   0  0  0  0  0  4  0  0  0  0  0  0
    4.7987   -6.9715    0.0000 N   0  0  0  0  0  3  0  0  0  0  0  0
    6.1000   -7.3898    0.0000 C   0  0  0  0  0  4  0  0  0  0  0  0
    6.9017   -6.2859    0.0000 C   0  0  0  0  0  4  0  0  0  0  0  0
    6.1000   -5.1821    0.0000 C   0  0  0  0  0  4  0  0  0  0  0  0
    6.5183   -3.8924    0.0000 C   0  0  0  0  0  4  0  0  0  0  0  0
    7.8545   -3.6019    0.0000 O   0  0  0  0  0  2  0  0  0  0  0  0
    8.2728   -2.3122    0.0000 C   0  0  0  0  0  4  0  0  0  0  0  0
    7.3665   -1.3013    0.0000 O   0  0  0  0  0  2  0  0  0  0  0  0
    9.6090   -2.0333    0.0000 C   0  0  0  0  0  4  0  0  0  0  0  0
    9.8879   -3.3579    0.0000 C   0  0  0  0  0  4  0  0  0  0  0  0
    8.8770   -4.2758    0.0000 O   0  0  0  0  0  2  0  0  0  0  0  0
   10.9336   -1.7429    0.0000 C   0  0  0  0  0  4  0  0  0  0  0  0
    9.3185   -0.6971    0.0000 O   0  0  0  0  0  2  0  0  0  0  0  0
    3.5090   -7.3898    0.0000 C   0  0  0  0  0  4  0  0  0  0  0  0
    2.7073   -6.2859    0.0000 C   0  0  0  0  0  4  0  0  0  0  0  0
    0.0000   -2.0333    0.0000 C   0  0  0  0  0  4  0  0  0  0  0  0
   10.8987   -3.9389    0.0000 C   0  0  0  0  0  4  0  0  0  0  0  0
   11.6191   -0.6623    0.0000 C   0  0  0  0  0  4  0  0  0  0  0  0
   11.4216   -2.3935    0.0000 C   0  0  0  0  0  4  0  0  0  0  0  0
  1  2  1  0  0  0  0 
  2  3  2  0  0  0  0 
  3  4  1  0  0  0  0 
  3 24  1  0  0  0  0 
  4  5  2  0  0  0  0 
  4  6  1  0  0  0  0 
  7  6  1  1  0  0  0 
  7  8  1  0  0  0  0 
  7 23  1  0  0  0  0 
  8  9  1  0  0  0  0 
  8 12  1  0  0  0  0 
  9 10  1  0  0  0  0 
  9 22  1  0  0  0  0 
 10 11  1  0  0  0  0 
 11 12  2  0  0  0  0 
 12 13  1  0  0  0  0 
 13 14  1  0  0  0  0 
 14 15  1  0  0  0  0 
 15 16  2  0  0  0  0 
 15 17  1  0  0  0  0 
 17 18  1  0  0  0  0 
 17 20  1  0  0  0  0 
 17 21  1  0  0  0  0 
 18 19  1  0  0  0  0 
 18 25  1  0  0  0  0 
 20 26  1  0  0  0  0 
 20 27  1  0  0  0  0 
 22 23  1  0  0  0  0 
M  END
> <CDK Fingerprint>
AtCYBUkCAgBqAQiCBAMBQREUQgIABDEC4TAEAIMAACASAwBgRIwAAAACAAkIAADZbAYyBkSQEAIgAEAjwUAQQAAABAQOUgHAAAQAIVagUMgBAAhTIGBEQCAhMgQCAEIogQhIRwABAACBCAggQBAgB7UACYAE8HvACEpoQQBCACA=

> <ActivityOutcome_CPDBAS_Rat>
active

> <TD50_Rat_mmol>
0.00501

$$$$

  CDK     0721101958

 27 29  0  0  0  0  0  0  0  0999 V2000
    6.6515   -8.0678    0.0000 Cl  0  0  0  0  0  1  0  0  0  0  0  0
    5.9939   -6.9170    0.0000 C   0  0  0  0  0  4  0  0  0  0  0  0
    6.6515   -5.7663    0.0000 C   0  0  0  0  0  4  0  0  0  0  0  0
    5.9939   -4.6156    0.0000 C   0  0  0  0  0  4  0  0  0  0  0  0
    4.6535   -4.6156    0.0000 C   0  0  0  0  0  4  0  0  0  0  0  0
    3.9960   -3.4522    0.0000 C   0  0  0  0  0  4  0  0  0  0  0  0
    4.6535   -2.3015    0.0000 C   0  0  0  0  0  4  0  0  0  0  0  0
    5.9939   -2.3015    0.0000 C   0  0  0  0  0  4  0  0  0  0  0  0
    6.6515   -3.4522    0.0000 C   0  0  0  0  0  4  0  0  0  0  0  0
    3.9960   -1.1507    0.0000 O   0  0  0  0  0  2  0  0  0  0  0  0
    4.6535    0.0000    0.0000 C   0  0  0  0  0  4  0  0  0  0  0  0
    7.9919   -5.7663    0.0000 C   0  0  0  0  0  4  0  0  0  0  0  0
    8.6495   -4.6156    0.0000 C   0  0  0  0  0  4  0  0  0  0  0  0
    9.9772   -4.6156    0.0000 C   0  0  0  0  0  4  0  0  0  0  0  0
   10.6474   -5.7663    0.0000 C   0  0  0  0  0  4  0  0  0  0  0  0
    9.9772   -6.9170    0.0000 C   0  0  0  0  0  4  0  0  0  0  0  0
    8.6495   -6.9170    0.0000 C   0  0  0  0  0  4  0  0  0  0  0  0
   11.9752   -5.7663    0.0000 O   0  0  0  0  0  2  0  0  0  0  0  0
   12.6454   -6.9170    0.0000 C   0  0  0  0  0  4  0  0  0  0  0  0
    4.6535   -6.9170    0.0000 C   0  0  0  0  0  4  0  0  0  0  0  0
    3.9960   -8.0678    0.0000 C   0  0  0  0  0  4  0  0  0  0  0  0
    2.6682   -8.0678    0.0000 C   0  0  0  0  0  4  0  0  0  0  0  0
    1.9980   -6.9170    0.0000 C   0  0  0  0  0  4  0  0  0  0  0  0
    2.6682   -5.7663    0.0000 C   0  0  0  0  0  4  0  0  0  0  0  0
    3.9960   -5.7663    0.0000 C   0  0  0  0  0  4  0  0  0  0  0  0
    0.6702   -6.9170    0.0000 O   0  0  0  0  0  2  0  0  0  0  0  0
    0.0000   -8.0678    0.0000 C   0  0  0  0  0  4  0  0  0  0  0  0
  1  2  1  0  0  0  0 
  2  3  2  0  0  0  0 
  2 20  1  0  0  0  0 
  3  4  1  0  0  0  0 
  3 12  1  0  0  0  0 
  4  5  2  0  0  0  0 
  4  9  1  0  0  0  0 
  5  6  1  0  0  0  0 
  6  7  2  0  0  0  0 
  7  8  1  0  0  0  0 
  7 10  1  0  0  0  0 
  8  9  2  0  0  0  0 
 10 11  1  0  0  0  0 
 12 13  2  0  0  0  0 
 12 17  1  0  0  0  0 
 13 14  1  0  0  0  0 
 14 15  2  0  0  0  0 
 15 16  1  0  0  0  0 
 15 18  1  0  0  0  0 
 16 17  2  0  0  0  0 
 18 19  1  0  0  0  0 
 20 21  2  0  0  0  0 
 20 25  1  0  0  0  0 
 21 22  1  0  0  0  0 
 22 23  2  0  0  0  0 
 23 24  1  0  0  0  0 
 23 26  1  0  0  0  0 
 24 25  2  0  0  0  0 
 26 27  1  0  0  0  0 
M  END
> <CDK Fingerprint>
QAAAEAQAAABAAAIAgAAAEAEAAAAAAACAAAIAgAgAAAhABuEASAAAQgAABAIAABAgAgAgAgAQAEABQADAAAABAQYYAAACEBAAAAAEAAAggAgQAAJQAAgAAIAAAAACgAAggAoAQCAgJAAAlAZAAgwAAAAUAIABKEEAAAQAACACAA==

> <ActivityOutcome_CPDBAS_Rat>
inactive

$$$$

  CDK     0721101958

  7  6  0  0  0  0  0  0  0  0999 V2000
    3.4571   -1.1709    0.0000 S   0  0  0  0  0  6  0  0  0  0  0  0
    2.3140   -1.8466    0.0000 C   0  0  0  0  0  4  0  0  0  0  0  0
    2.8138    0.0000    0.0000 O   0  0  0  0  0  2  0  0  0  0  0  0
    4.0819   -2.3140    0.0000 O   0  0  0  0  0  2  0  0  0  0  0  0
    4.6280   -0.5322    0.0000 O   0  0  0  0  0  2  0  0  0  0  0  0
    0.0000   -1.8466    0.0000 N   0  0  0  0  0  3  0  0  0  0  0  0
    1.1570   -1.1709    0.0000 C   0  0  0  0  0  4  0  0  0  0  0  0
  1  2  1  0  0  0  0 
  1  3  2  0  0  0  0 
  1  4  2  0  0  0  0 
  1  5  1  0  0  0  0 
  2  7  1  0  0  0  0 
  6  7  1  0  0  0  0 
M  END
> <CDK Fingerprint>
AgAAgAAAAAAAAAAAAAAAAAAAAAAAAAAAAAABYAAAAAAAAAAAAAAAACAAAAAAAAAAAAAAAAAAAAAAAAAAAAARAAAAAAAgAAABAAAAAoAAAAAAAQAAAAAAAACAAAAAAAAAgAAAAAAAEAAAIAAAAAAAAAAAAAAAAgAB

> <ActivityOutcome_CPDBAS_Rat>
inactive

$$$$

  CDK     0721101958

 14 15  0  0  0  0  0  0  0  0999 V2000
    3.3832   -2.2997    0.0000 N   0  0  0  0  0  3  0  0  0  0  0  0
    4.0391   -1.1572    0.0000 C   0  0  0  0  0  4  0  0  0  0  0  0
    5.3659   -1.1572    0.0000 N   0  0  0  0  0  3  0  0  0  0  0  0
    4.0391   -3.4569    0.0000 C   0  0  0  0  0  4  0  0  0  0  0  0
    5.3659   -3.4569    0.0000 C   0  0  0  0  0  4  0  0  0  0  0  0
    6.0440   -2.2997    0.0000 C   0  0  0  0  0  4  0  0  0  0  0  0
    2.0564   -2.2997    0.0000 C   0  0  0  0  0  4  0  0  0  0  0  0
    3.3832    0.0000    0.0000 O   0  0  0  0  0  2  0  0  0  0  0  0
    7.3707   -2.2997    0.0000 O   0  0  0  0  0  2  0  0  0  0  0  0
    1.2751   -3.3832    0.0000 O   0  0  0  0  0  2  0  0  0  0  0  0
    6.0440   -4.5993    0.0000 F   0  0  0  0  0  1  0  0  0  0  0  0
    1.2751   -1.2309    0.0000 C   0  0  0  0  0  4  0  0  0  0  0  0
    0.0000   -2.9704    0.0000 C   0  0  0  0  0  4  0  0  0  0  0  0
    0.0000   -1.6437    0.0000 C   0  0  0  0  0  4  0  0  0  0  0  0
  1  2  1  0  0  0  0 
  1  4  1  0  0  0  0 
  1  7  1  0  0  0  0 
  2  3  1  0  0  0  0 
  2  8  2  0  0  0  0 
  3  6  1  0  0  0  0 
  4  5  2  0  0  0  0 
  5  6  1  0  0  0  0 
  5 11  1  0  0  0  0 
  6  9  2  0  0  0  0 
  7 10  1  0  0  0  0 
  7 12  1  0  0  0  0 
 10 13  1  0  0  0  0 
 12 14  1  0  0  0  0 
 13 14  1  0  0  0  0 
M  END
> <CDK Fingerprint>
REAkAYAwCAAikABKAAEQABGAEAAAgEhAiCEACgEAAAAiIBhgAYAoiKEAoAAAgAFQIApCAAIREAgCAAoAwBMAAIAgAAaJRARBAAEAAABAAICAAGAQJIlASFAIERAAEQAEEEJgQAELgBAAgkAgABCgASAAUAIEdBIFAGIAGQgCIYA=

> <ActivityOutcome_CPDBAS_Rat>
inactive

$$$$

  CDK     0721101958

 16 16  0  0  0  0  0  0  0  0999 V2000
    7.3956   -2.1643    0.0000 C   0  0  0  0  0  4  0  0  0  0  0  0
    8.0587   -3.3156    0.0000 C   0  0  0  0  0  4  0  0  0  0  0  0
    9.2099   -2.6525    0.0000 C   0  0  0  0  0  4  0  0  0  0  0  0
    8.7218   -4.4668    0.0000 C   0  0  0  0  0  4  0  0  0  0  0  0
    6.9074   -3.9879    0.0000 N   0  0  0  0  0  3  0  0  0  0  0  0
    5.7562   -3.3156    0.0000 C   0  0  0  0  0  4  0  0  0  0  0  0
    4.6050   -3.9879    0.0000 C   0  0  0  0  0  4  0  0  0  0  0  0
    4.6050   -5.3141    0.0000 O   0  0  0  0  0  2  0  0  0  0  0  0
    3.4537   -3.3156    0.0000 C   0  0  0  0  0  4  0  0  0  0  0  0
    2.3025   -3.9879    0.0000 C   0  0  0  0  0  4  0  0  0  0  0  0
    1.1512   -3.3156    0.0000 C   0  0  0  0  0  4  0  0  0  0  0  0
    0.0000   -3.9879    0.0000 O   0  0  0  0  0  2  0  0  0  0  0  0
    1.1512   -1.9893    0.0000 C   0  0  0  0  0  4  0  0  0  0  0  0
    2.3025   -1.3262    0.0000 C   0  0  0  0  0  4  0  0  0  0  0  0
    3.4537   -1.9893    0.0000 C   0  0  0  0  0  4  0  0  0  0  0  0
    2.3025    0.0000    0.0000 O   0  0  0  0  0  2  0  0  0  0  0  0
  1  2  1  0  0  0  0 
  2  3  1  0  0  0  0 
  2  4  1  0  0  0  0 
  2  5  1  0  0  0  0 
  5  6  1  0  0  0  0 
  6  7  1  0  0  0  0 
  7  8  1  0  0  0  0 
  7  9  1  0  0  0  0 
  9 10  2  0  0  0  0 
  9 15  1  0  0  0  0 
 10 11  1  0  0  0  0 
 11 12  1  0  0  0  0 
 11 13  2  0  0  0  0 
 13 14  1  0  0  0  0 
 14 15  2  0  0  0  0 
 14 16  1  0  0  0  0 
M  END
> <CDK Fingerprint>
EAAAAACAAgACEgABAAAAAAACAAAAAAACAAAAAAQIiAACYQAACoCIAAAAAgAACCAAECAIAAAgQACCAMAAAAAABAwAAAAAAAAAAhAAAACAAAAAQCAAAAAAgBAAAACAACAAAABAJCQAAwAAAkAABAgAgBQAgAABBAABAAAAAgAA

> <ActivityOutcome_CPDBAS_Rat>
active

> <TD50_Rat_mmol>
1.82

$$$$

  CDK     0721101958

 15 15  0  0  0  0  0  0  0  0999 V2000
    4.6527   -4.6061    0.0000 Cl  0  0  0  0  0  1  0  0  0  0  0  0
    3.9880   -3.4563    0.0000 C   0  0  0  0  0  4  0  0  0  0  0  0
    2.6587   -3.4563    0.0000 C   0  0  0  0  0  4  0  0  0  0  0  0
    1.9940   -4.6061    0.0000 Cl  0  0  0  0  0  1  0  0  0  0  0  0
    1.9940   -2.3064    0.0000 C   0  0  0  0  0  4  0  0  0  0  0  0
    2.6587   -1.1499    0.0000 C   0  0  0  0  0  4  0  0  0  0  0  0
    1.9940    0.0000    0.0000 Cl  0  0  0  0  0  1  0  0  0  0  0  0
    3.9880   -1.1499    0.0000 C   0  0  0  0  0  4  0  0  0  0  0  0
    4.6527   -2.3064    0.0000 C   0  0  0  0  0  4  0  0  0  0  0  0
    5.9820   -2.3064    0.0000 O   0  0  0  0  0  2  0  0  0  0  0  0
    6.6466   -1.1499    0.0000 C   0  0  0  0  0  4  0  0  0  0  0  0
    4.6527    0.0000    0.0000 Cl  0  0  0  0  0  1  0  0  0  0  0  0
    0.6647   -2.3064    0.0000 N   0  0  0  0  0  4  0  0  0  0  0  0
    0.0000   -3.4563    0.0000 O   0  0  0  0  0  1  0  0  0  0  0  0
    0.0000   -1.1499    0.0000 O   0  0  0  0  0  2  0  0  0  0  0  0
  1  2  1  0  0  0  0 
  2  3  2  0  0  0  0 
  2  9  1  0  0  0  0 
  3  4  1  0  0  0  0 
  3  5  1  0  0  0  0 
  5  6  2  0  0  0  0 
  5 13  1  0  0  0  0 
  6  7  1  0  0  0  0 
  6  8  1  0  0  0  0 
  8  9  2  0  0  0  0 
  8 12  1  0  0  0  0 
  9 10  1  0  0  0  0 
 10 11  1  0  0  0  0 
 13 14  1  0  0  0  0 
 13 15  2  0  0  0  0 
M  CHG  1  13   1
M  CHG  1  14  -1
M  END
> <CDK Fingerprint>
GAAAEAIAACAAgEoAIAAAAAgAAAAAGECIAAEAAAQABgAAAuEABAAAAAAAAAAAAAAgAAAgAgAAAEBEAAQAAAABAAIQAAAAAAAAgACEAASAoBBNACAAAAAACQEAAAAQAAAkAAQAgCIkIABAIEIACAAAAAEAAIAAAAAAAAAAQCIQAA==

> <ActivityOutcome_CPDBAS_Rat>
inactive

$$$$

  CDK     0721101958

 18 19  0  0  0  0  0  0  0  0999 V2000
    3.9941   -4.6086    0.0000 Cl  0  0  0  0  0  1  0  0  0  0  0  0
    3.3238   -3.4541    0.0000 C   0  0  0  0  0  4  0  0  0  0  0  0
    1.9924   -3.4541    0.0000 C   0  0  0  0  0  4  0  0  0  0  0  0
    1.3314   -2.3090    0.0000 C   0  0  0  0  0  4  0  0  0  0  0  0
    1.9924   -1.1545    0.0000 C   0  0  0  0  0  4  0  0  0  0  0  0
    3.3238   -1.1545    0.0000 C   0  0  0  0  0  4  0  0  0  0  0  0
    3.9941   -2.3090    0.0000 C   0  0  0  0  0  4  0  0  0  0  0  0
    5.3162   -2.3090    0.0000 C   0  0  0  0  0  4  0  0  0  0  0  0
    5.9865   -1.1545    0.0000 C   0  0  0  0  0  4  0  0  0  0  0  0
    7.3179   -1.1545    0.0000 C   0  0  0  0  0  4  0  0  0  0  0  0
    7.9789   -2.3090    0.0000 C   0  0  0  0  0  4  0  0  0  0  0  0
    7.3179   -3.4541    0.0000 C   0  0  0  0  0  4  0  0  0  0  0  0
    5.9865   -3.4541    0.0000 C   0  0  0  0  0  4  0  0  0  0  0  0
    7.9789   -4.6086    0.0000 Cl  0  0  0  0  0  1  0  0  0  0  0  0
    9.3103   -2.3090    0.0000 N   0  0  0  0  0  3  0  0  0  0  0  0
    5.3162    0.0000    0.0000 Cl  0  0  0  0  0  1  0  0  0  0  0  0
    1.3314    0.0000    0.0000 Cl  0  0  0  0  0  1  0  0  0  0  0  0
    0.0000   -2.3090    0.0000 N   0  0  0  0  0  3  0  0  0  0  0  0
  1  2  1  0  0  0  0 
  2  3  2  0  0  0  0 
  2  7  1  0  0  0  0 
  3  4  1  0  0  0  0 
  4  5  2  0  0  0  0 
  4 18  1  0  0  0  0 
  5  6  1  0  0  0  0 
  5 17  1  0  0  0  0 
  6  7  2  0  0  0  0 
  7  8  1  0  0  0  0 
  8  9  2  0  0  0  0 
  8 13  1  0  0  0  0 
  9 10  1  0  0  0  0 
  9 16  1  0  0  0  0 
 10 11  2  0  0  0  0 
 11 12  1  0  0  0  0 
 11 15  1  0  0  0  0 
 12 13  2  0  0  0  0 
 12 14  1  0  0  0  0 
M  END
> <CDK Fingerprint>
AQgAAAEAgAAgBBBQAAAAAAAAAAAAEABBQAAAAAIEAAMAAADgAAAAAAABAAAAAAAAIEAAAAAAFABAAAAMAIAAAQQEAAASAAAAAAAAAAAABEAACgAAAAAAAAWBAAAAAIAAIAAABMAgBAAAAEJCQAEIACAAABiAgAAAEAgIAAACEAA=

> <ActivityOutcome_CPDBAS_Rat>
inactive

$$$$

  CDK     0721101958

 18 20  0  0  0  0  0  0  0  0999 V2000
    9.2104   -2.6618    0.0000 Cl  0  0  0  0  0  1  0  0  0  0  0  0
    8.0591   -1.9986    0.0000 C   0  0  0  0  0  4  0  0  0  0  0  0
    6.9078   -2.6618    0.0000 C   0  0  0  0  0  4  0  0  0  0  0  0
    5.7565   -1.9986    0.0000 C   0  0  0  0  0  4  0  0  0  0  0  0
    5.7565   -0.6631    0.0000 C   0  0  0  0  0  4  0  0  0  0  0  0
    6.9078    0.0000    0.0000 C   0  0  0  0  0  4  0  0  0  0  0  0
    8.0591   -0.6631    0.0000 C   0  0  0  0  0  4  0  0  0  0  0  0
    9.2104    0.0000    0.0000 Cl  0  0  0  0  0  1  0  0  0  0  0  0
    4.6052    0.0000    0.0000 O   0  0  0  0  0  2  0  0  0  0  0  0
    3.4539   -0.6631    0.0000 C   0  0  0  0  0  4  0  0  0  0  0  0
    3.4539   -1.9986    0.0000 C   0  0  0  0  0  4  0  0  0  0  0  0
    2.3026   -2.6618    0.0000 C   0  0  0  0  0  4  0  0  0  0  0  0
    1.1513   -1.9986    0.0000 C   0  0  0  0  0  4  0  0  0  0  0  0
    1.1513   -0.6631    0.0000 C   0  0  0  0  0  4  0  0  0  0  0  0
    2.3026    0.0000    0.0000 C   0  0  0  0  0  4  0  0  0  0  0  0
    0.0000    0.0000    0.0000 Cl  0  0  0  0  0  1  0  0  0  0  0  0
    0.0000   -2.6618    0.0000 Cl  0  0  0  0  0  1  0  0  0  0  0  0
    4.6052   -2.6618    0.0000 O   0  0  0  0  0  2  0  0  0  0  0  0
  1  2  1  0  0  0  0 
  2  3  2  0  0  0  0 
  2  7  1  0  0  0  0 
  3  4  1  0  0  0  0 
  4  5  2  0  0  0  0 
  4 18  1  0  0  0  0 
  5  6  1  0  0  0  0 
  5  9  1  0  0  0  0 
  6  7  2  0  0  0  0 
  7  8  1  0  0  0  0 
  9 10  1  0  0  0  0 
 10 11  2  0  0  0  0 
 10 15  1  0  0  0  0 
 11 12  1  0  0  0  0 
 11 18  1  0  0  0  0 
 12 13  2  0  0  0  0 
 13 14  1  0  0  0  0 
 13 17  1  0  0  0  0 
 14 15  2  0  0  0  0 
 14 16  1  0  0  0  0 
M  END
> <CDK Fingerprint>
EAAAAAAAAAAAAA4AAAAAAAAAAAqAACiAgABAAAAAAIAAAuEAAAAEEAAAAAAAAAAoABAgAIAAAGBAAAAgAAABAAYUAAAAAAIAAAAGAAAAgAQIAQAAAAAACQECAAAAAAAhAAADgCIkIAAQAhIAAABgAAAAAIAAAAgAAAAAACAAAA==

> <ActivityOutcome_CPDBAS_Rat>
active

> <TD50_Rat_mmol>
0.000000073

$$$$

  CDK     0721101958

  6  5  0  0  0  0  0  0  0  0999 V2000
    1.8169   -2.3040    0.0000 Cl  0  0  0  0  0  1  0  0  0  0  0  0
    1.1503   -1.1537    0.0000 C   0  0  0  0  0  4  0  0  0  0  0  0
    2.3040   -0.4870    0.0000 C   0  0  0  0  0  4  0  0  0  0  0  0
    3.4542   -1.1537    0.0000 Cl  0  0  0  0  0  1  0  0  0  0  0  0
    0.0000   -1.8169    0.0000 Cl  0  0  0  0  0  1  0  0  0  0  0  0
    0.4870    0.0000    0.0000 Cl  0  0  0  0  0  1  0  0  0  0  0  0
  1  2  1  0  0  0  0 
  2  3  1  0  0  0  0 
  2  5  1  0  0  0  0 
  2  6  1  0  0  0  0 
  3  4  1  0  0  0  0 
M  END
> <CDK Fingerprint>
AMAAAAAAAAAAAAAAAAAgAAAABgAAAAAAAAAAAAABAAAABAAAAAAAAAAAAAAAAAAAAAAAAAAAAAAAAAAAAAAAAAAAAAAAAAAAAAAAAAAAAAAAAAAAAAAAAAAAAAAAAA==

> <ActivityOutcome_CPDBAS_Rat>
inactive

$$$$

  CDK     0721101958

  6  5  0  0  0  0  0  0  0  0999 V2000
    1.3307    0.0000    0.0000 Cl  0  0  0  0  0  1  0  0  0  0  0  0
    1.9943   -1.1509    0.0000 C   0  0  0  0  0  4  0  0  0  0  0  0
    1.3307   -2.3053    0.0000 C   0  0  0  0  0  4  0  0  0  0  0  0
    1.9943   -3.4563    0.0000 Cl  0  0  0  0  0  1  0  0  0  0  0  0
    0.0000   -2.3053    0.0000 Cl  0  0  0  0  0  1  0  0  0  0  0  0
    3.3250   -1.1509    0.0000 Cl  0  0  0  0  0  1  0  0  0  0  0  0
  1  2  1  0  0  0  0 
  2  3  1  0  0  0  0 
  2  6  1  0  0  0  0 
  3  4  1  0  0  0  0 
  3  5  1  0  0  0  0 
M  END
> <CDK Fingerprint>
AMAAAAAAAAAAAAAAAAAgAAAABgAAAAAAAAAAAAABAAAABAAAAAAAAAAAAAAAAAAAAAAAAAAAAAAAAAAAAAAAAAAAAAAAAAAAAAAAAAAAAAAAAAAAAAAAAAAAAAAAAA==

> <ActivityOutcome_CPDBAS_Rat>
inactive

$$$$

  CDK     0721101958

  6  5  0  0  0  0  0  0  0  0999 V2000
    1.3307    0.0000    0.0000 Cl  0  0  0  0  0  1  0  0  0  0  0  0
    1.9943   -1.1509    0.0000 C   0  0  0  0  0  4  0  0  0  0  0  0
    1.3307   -2.3053    0.0000 C   0  0  0  0  0  4  0  0  0  0  0  0
    1.9943   -3.4563    0.0000 Cl  0  0  0  0  0  1  0  0  0  0  0  0
    0.0000   -2.3053    0.0000 Cl  0  0  0  0  0  1  0  0  0  0  0  0
    3.3250   -1.1509    0.0000 Cl  0  0  0  0  0  1  0  0  0  0  0  0
  1  2  1  0  0  0  0 
  2  3  2  0  0  0  0 
  2  6  1  0  0  0  0 
  3  4  1  0  0  0  0 
  3  5  1  0  0  0  0 
M  END
> <CDK Fingerprint>
AMAAAAAAAAAAAAAAAAAAAAAABAAQAAAAQAAAAAABAAAAAAAAAAAAAAAAAAAAAAAAAACAAAAAAAAAAAAAAAAAAAAAAAAAAAAAAAAAAAAAAAAAAAAAAAAAAAAAAAAAAA==

> <ActivityOutcome_CPDBAS_Rat>
active

> <TD50_Rat_mmol>
0.874

$$$$

  CDK     0721101958

 16 15  0  0  0  0  0  0  0  0999 V2000
    1.9952   -4.6036    0.0000 S   0  0  0  0  0  2  0  0  0  0  0  0
    2.6603   -3.4549    0.0000 C   0  0  0  0  0  4  0  0  0  0  0  0
    1.9952   -2.2975    0.0000 N   0  0  0  0  0  3  0  0  0  0  0  0
    0.6651   -2.2975    0.0000 C   0  0  0  0  0  4  0  0  0  0  0  0
    0.0000   -3.4549    0.0000 C   0  0  0  0  0  4  0  0  0  0  0  0
    2.6603   -1.1487    0.0000 C   0  0  0  0  0  4  0  0  0  0  0  0
    1.9952    0.0000    0.0000 C   0  0  0  0  0  4  0  0  0  0  0  0
    3.9904   -3.4549    0.0000 S   0  0  0  0  0  2  0  0  0  0  0  0
    4.6468   -4.6036    0.0000 S   0  0  0  0  0  2  0  0  0  0  0  0
    5.9769   -4.6036    0.0000 C   0  0  0  0  0  4  0  0  0  0  0  0
    6.6420   -5.7524    0.0000 S   0  0  0  0  0  2  0  0  0  0  0  0
    6.6420   -3.4549    0.0000 N   0  0  0  0  0  3  0  0  0  0  0  0
    5.9769   -2.2975    0.0000 C   0  0  0  0  0  4  0  0  0  0  0  0
    4.6468   -2.2975    0.0000 C   0  0  0  0  0  4  0  0  0  0  0  0
    7.9721   -3.4549    0.0000 C   0  0  0  0  0  4  0  0  0  0  0  0
    8.6372   -2.2975    0.0000 C   0  0  0  0  0  4  0  0  0  0  0  0
  1  2  2  0  0  0  0 
  2  3  1  0  0  0  0 
  2  8  1  0  0  0  0 
  3  4  1  0  0  0  0 
  3  6  1  0  0  0  0 
  4  5  1  0  0  0  0 
  6  7  1  0  0  0  0 
  8  9  1  0  0  0  0 
  9 10  1  0  0  0  0 
 10 11  2  0  0  0  0 
 10 12  1  0  0  0  0 
 12 13  1  0  0  0  0 
 12 15  1  0  0  0  0 
 13 14  1  0  0  0  0 
 15 16  1  0  0  0  0 
M  END
> <CDK Fingerprint>
QBAAAAgAIAIAAAAACAAAAAAAAgAAAAAAAAAAAAgAAAAAgWACAAAAQAAAAAAJAAAiAAYAAQAAAAAAAADAAACAAAAAAAAAAAAEgAAAABAAgAAAAAGAAAAAABAAAAAAAAAAAAAAAAAAAAAAAAAAAAAAAAIAAQAAAAAAIAGACAIAAA==

> <ActivityOutcome_CPDBAS_Rat>
inactive

$$$$

  CDK     0721101958

  6  5  0  0  0  0  0  0  0  0999 V2000
    3.4542   -1.1537    0.0000 F   0  0  0  0  0  1  0  0  0  0  0  0
    2.3040   -0.4870    0.0000 C   0  0  0  0  0  4  0  0  0  0  0  0
    1.1503   -1.1537    0.0000 C   0  0  0  0  0  4  0  0  0  0  0  0
    1.8169   -2.3040    0.0000 F   0  0  0  0  0  1  0  0  0  0  0  0
    0.0000   -1.8169    0.0000 F   0  0  0  0  0  1  0  0  0  0  0  0
    0.4870    0.0000    0.0000 F   0  0  0  0  0  1  0  0  0  0  0  0
  1  2  1  0  0  0  0 
  2  3  1  0  0  0  0 
  3  4  1  0  0  0  0 
  3  5  1  0  0  0  0 
  3  6  1  0  0  0  0 
M  END
> <CDK Fingerprint>
MAAAQAAAAAAgAAAAAAAAACAAAAAAAAAAAAAAAAAAAAAAAAAAAAAABAAAAAAAAAAAAAAAAAAAAAAAAAAAAAAAAAAAAAAAAAAAAAAAAAAAAAAAAAAAAAAAAAAAAAAAAAAA

> <ActivityOutcome_CPDBAS_Rat>
active

> <TD50_Rat_mmol>
293

$$$$

  CDK     0721101958

  6  5  0  0  0  0  0  0  0  0999 V2000
    2.6600   -2.3036    0.0000 F   0  0  0  0  0  1  0  0  0  0  0  0
    0.0000   -2.3036    0.0000 F   0  0  0  0  0  1  0  0  0  0  0  0
    0.6730   -1.1598    0.0000 C   0  0  0  0  0  4  0  0  0  0  0  0
    1.9870   -1.1598    0.0000 C   0  0  0  0  0  4  0  0  0  0  0  0
    0.0000    0.0000    0.0000 F   0  0  0  0  0  1  0  0  0  0  0  0
    2.6600    0.0000    0.0000 F   0  0  0  0  0  1  0  0  0  0  0  0
  1  4  1  0  0  0  0 
  2  3  1  0  0  0  0 
  3  4  2  0  0  0  0 
  3  5  1  0  0  0  0 
  4  6  1  0  0  0  0 
M  END
> <CDK Fingerprint>
EAAAQAAAIAAgAAAAAAAAAAAAAAAAABAAAAAAAAAAAAAAAAAAAAAAAAAAAAAAAAAAAAAAAAAAAAAAAAAAAAAAAAAAAAAAAAAAAAAAAAAAAAAAAQAAAAAAAAAAAAAAAAAA

> <ActivityOutcome_CPDBAS_Rat>
active

> <TD50_Rat_mmol>
1.07

$$$$

  CDK     0721101958

  8  8  0  0  0  0  0  0  0  0999 V2000
    0.6656   -2.3042    0.0000 C   0  0  0  0  0  4  0  0  0  0  0  0
    0.0000   -1.1544    0.0000 C   0  0  0  0  0  4  0  0  0  0  0  0
    0.6656    0.0000    0.0000 C   0  0  0  0  0  4  0  0  0  0  0  0
    1.9969    0.0000    0.0000 C   0  0  0  0  0  4  0  0  0  0  0  0
    2.6579   -1.1544    0.0000 N   0  0  0  0  0  3  0  0  0  0  0  0
    1.9969   -2.3042    0.0000 O   0  0  0  0  0  2  0  0  0  0  0  0
    3.9892   -1.1544    0.0000 N   0  0  0  0  0  3  0  0  0  0  0  0
    4.6549   -2.3042    0.0000 O   0  0  0  0  0  2  0  0  0  0  0  0
  1  2  1  0  0  0  0 
  1  6  1  0  0  0  0 
  2  3  1  0  0  0  0 
  3  4  1  0  0  0  0 
  4  5  1  0  0  0  0 
  5  6  1  0  0  0  0 
  5  7  1  0  0  0  0 
  7  8  2  0  0  0  0 
M  END
> <CDK Fingerprint>
KgAACgABgAABAAAAABAAAAAgAAAAAEAEAQABZQAAAAAAAIQAAAABEDAEAwAGAAEAAAAAAEAAAAAAAAAAAAAAQAAAAAAAAAAAAgAQAAAAAAAAABAAAAAAISAEBCAAAAgIAAEAAAAQAAAAIAAABABQAAAAAAAAAwAA

> <ActivityOutcome_CPDBAS_Rat>
active

> <TD50_Rat_mmol>
0.209

$$$$

  CDK     0721101958

 23 25  0  0  0  0  0  0  0  0999 V2000
    4.6072   -2.0131    0.0000 C   0  0  0  0  0  4  0  0  0  0  0  0
    3.4658   -2.6668    0.0000 C   0  0  0  0  0  4  0  0  0  0  0  0
    5.7694   -2.6668    0.0000 C   0  0  0  0  0  4  0  0  0  0  0  0
    5.7694   -3.9950    0.0000 O   0  0  0  0  0  2  0  0  0  0  0  0
    4.6072   -4.6695    0.0000 C   0  0  0  0  0  4  0  0  0  0  0  0
    3.4658   -3.9950    0.0000 C   0  0  0  0  0  4  0  0  0  0  0  0
    4.6072   -0.6745    0.0000 C   0  0  0  0  0  4  0  0  0  0  0  0
    2.3036   -2.0131    0.0000 C   0  0  0  0  0  4  0  0  0  0  0  0
    2.3036   -4.6695    0.0000 C   0  0  0  0  0  4  0  0  0  0  0  0
    1.1622   -2.6668    0.0000 C   0  0  0  0  0  4  0  0  0  0  0  0
    6.9108   -2.0131    0.0000 C   0  0  0  0  0  4  0  0  0  0  0  0
    5.7694    0.0000    0.0000 C   0  0  0  0  0  4  0  0  0  0  0  0
    6.9108   -0.6745    0.0000 C   0  0  0  0  0  4  0  0  0  0  0  0
    1.1622   -3.9950    0.0000 C   0  0  0  0  0  4  0  0  0  0  0  0
    3.4658    0.0000    0.0000 O   0  0  0  0  0  2  0  0  0  0  0  0
    5.2817   -5.8109    0.0000 C   0  0  0  0  0  4  0  0  0  0  0  0
    3.9535   -5.8109    0.0000 C   0  0  0  0  0  4  0  0  0  0  0  0
    0.0000   -2.0131    0.0000 C   0  0  0  0  0  4  0  0  0  0  0  0
    8.0730    0.0000    0.0000 C   0  0  0  0  0  4  0  0  0  0  0  0
    9.2144   -0.6745    0.0000 C   0  0  0  0  0  4  0  0  0  0  0  0
   10.3766   -2.6668    0.0000 C   0  0  0  0  0  4  0  0  0  0  0  0
    9.2144   -2.0131    0.0000 C   0  0  0  0  0  4  0  0  0  0  0  0
   10.3766   -3.9950    0.0000 C   0  0  0  0  0  4  0  0  0  0  0  0
  1  2  1  0  0  0  0 
  1  3  1  0  0  0  0 
  1  7  2  0  0  0  0 
  2  6  1  0  0  0  0 
  2  8  1  0  0  0  0 
  3  4  1  0  0  0  0 
  3 11  2  0  0  0  0 
  4  5  1  0  0  0  0 
  5 16  1  0  0  0  0 
  5 17  1  0  0  0  0 
  5  6  1  0  0  0  0 
  6  9  1  0  0  0  0 
  7 12  1  0  0  0  0 
  7 15  1  0  0  0  0 
  8 10  2  0  0  0  0 
  9 14  1  0  0  0  0 
 10 14  1  0  0  0  0 
 10 18  1  0  0  0  0 
 11 13  1  0  0  0  0 
 12 13  2  0  0  0  0 
 13 19  1  0  0  0  0 
 19 20  1  0  0  0  0 
 20 22  1  0  0  0  0 
 21 22  1  0  0  0  0 
 21 23  1  0  0  0  0 
M  END
> <CDK Fingerprint>
QAIgAAEAAAAoAhIAMBoECEgCApEEWGDgAAQAYAMACUgJiuEAEAKAiABASEAAAhSgAqAgQIAcIERQNGhAQBUCABY4JASAQAMMhGJMYwADmUEBCEAAAQBACMEQALBAjAgpYAAAwLAgICIMAEZNGAQCEIgcgISAGBYCAQBAICAAIA==

> <ActivityOutcome_CPDBAS_Rat>
inactive

$$$$

  CDK     0721101958

  5  5  0  0  0  0  0  0  0  0999 V2000
    1.0798    0.0000    0.0000 O   0  0  0  0  0  2  0  0  0  0  0  0
    0.0000   -0.7451    0.0000 C   0  0  0  0  0  4  0  0  0  0  0  0
    2.1597   -0.7451    0.0000 C   0  0  0  0  0  4  0  0  0  0  0  0
    0.4298   -2.0323    0.0000 C   0  0  0  0  0  4  0  0  0  0  0  0
    1.7472   -2.0323    0.0000 C   0  0  0  0  0  4  0  0  0  0  0  0
  1  2  1  0  0  0  0 
  1  3  1  0  0  0  0 
  2  4  1  0  0  0  0 
  3  5  1  0  0  0  0 
  4  5  1  0  0  0  0 
M  END
> <CDK Fingerprint>
AgAAAAAAAAAAAAAAAIAAAAAAAAAAAAAAYACAAAAAAAAAAAAAECACAAAAAAAAAAAAAEAAAAAAAAAAAAAAAAAAAAAAAAAAAAAAAAAAAEAAABAAAAAAAAAAAAAAAAAAAAAAAAAQAAAAAAAAAAAQAAAAAAAAAAAA

> <ActivityOutcome_CPDBAS_Rat>
active

> <TD50_Rat_mmol>
5.64

$$$$

  CDK     0721101958

 17 18  0  0  0  0  0  0  0  0999 V2000
    4.3950   -3.9933    0.0000 N   0  0  0  0  0  3  0  0  0  0  0  0
    3.2518   -3.3290    0.0000 C   0  0  0  0  0  4  0  0  0  0  0  0
    3.2364   -1.9928    0.0000 N   0  0  0  0  0  3  0  0  0  0  0  0
    4.3950   -1.3285    0.0000 C   0  0  0  0  0  4  0  0  0  0  0  0
    5.5458   -1.9928    0.0000 C   0  0  0  0  0  4  0  0  0  0  0  0
    5.5458   -3.3213    0.0000 C   0  0  0  0  0  4  0  0  0  0  0  0
    4.3950    0.0000    0.0000 O   0  0  0  0  0  2  0  0  0  0  0  0
    2.1009   -3.9933    0.0000 O   0  0  0  0  0  2  0  0  0  0  0  0
    4.3950   -5.3141    0.0000 C   0  0  0  0  0  4  0  0  0  0  0  0
    4.0088   -6.5963    0.0000 C   0  0  0  0  0  4  0  0  0  0  0  0
    2.6880   -6.6272    0.0000 C   0  0  0  0  0  4  0  0  0  0  0  0
    2.2400   -5.3836    0.0000 C   0  0  0  0  0  4  0  0  0  0  0  0
    3.2904   -4.5649    0.0000 O   0  0  0  0  0  2  0  0  0  0  0  0
    0.9655   -4.9974    0.0000 C   0  0  0  0  0  4  0  0  0  0  0  0
    0.0000   -5.9166    0.0000 O   0  0  0  0  0  2  0  0  0  0  0  0
    1.9310   -7.7240    0.0000 O   0  0  0  0  0  2  0  0  0  0  0  0
    4.8275   -7.6468    0.0000 O   0  0  0  0  0  2  0  0  0  0  0  0
  1  2  1  0  0  0  0 
  1  6  1  0  0  0  0 
  9  1  1  1  0  0  0 
  2  3  1  0  0  0  0 
  2  8  2  0  0  0  0 
  3  4  1  0  0  0  0 
  4  5  1  0  0  0  0 
  4  7  2  0  0  0  0 
  5  6  1  0  0  0  0 
  9 10  1  0  0  0  0 
  9 13  1  0  0  0  0 
 10 11  1  0  0  0  0 
 10 17  1  6  0  0  0 
 11 12  1  0  0  0  0 
 11 16  1  6  0  0  0 
 12 13  1  0  0  0  0 
 12 14  1  1  0  0  0 
 14 15  1  0  0  0  0 
M  END
> <CDK Fingerprint>
BMA2AYAwAAQCEAhaAEEAApAAEgAAACETiBAAgAECgCABAQBgBYQoyIAAoAAZBAFYJUZyAAIhACAQgGhC0iYKAIAIAAAIRAFBAAgAAAAAAMGBAcBDIOxARNBMEQRhAEIAQAJgSAABABAADEggABAAASQAQAAAUHUEAKAAAAgKFAA=

> <ActivityOutcome_CPDBAS_Rat>
inactive

$$$$

  CDK     0721101958

 12 11  0  0  0  0  0  0  0  0999 V2000
    2.3008   -3.9867    0.0000 S   0  0  0  0  0  2  0  0  0  0  0  0
    2.3008   -2.6601    0.0000 C   0  0  0  0  0  4  0  0  0  0  0  0
    1.1539   -1.9899    0.0000 N   0  0  0  0  0  3  0  0  0  0  0  0
    1.1539   -0.6633    0.0000 C   0  0  0  0  0  4  0  0  0  0  0  0
    0.0000   -2.6601    0.0000 C   0  0  0  0  0  4  0  0  0  0  0  0
    3.4547   -1.9899    0.0000 S   0  0  0  0  0  2  0  0  0  0  0  0
    4.6085   -2.6601    0.0000 S   0  0  0  0  0  2  0  0  0  0  0  0
    5.7555   -1.9899    0.0000 C   0  0  0  0  0  4  0  0  0  0  0  0
    6.9094   -2.6601    0.0000 S   0  0  0  0  0  2  0  0  0  0  0  0
    5.7555   -0.6633    0.0000 N   0  0  0  0  0  3  0  0  0  0  0  0
    4.6085    0.0000    0.0000 C   0  0  0  0  0  4  0  0  0  0  0  0
    6.9094    0.0000    0.0000 C   0  0  0  0  0  4  0  0  0  0  0  0
  1  2  2  0  0  0  0 
  2  3  1  0  0  0  0 
  2  6  1  0  0  0  0 
  3  4  1  0  0  0  0 
  3  5  1  0  0  0  0 
  6  7  1  0  0  0  0 
  7  8  1  0  0  0  0 
  8  9  2  0  0  0  0 
  8 10  1  0  0  0  0 
 10 11  1  0  0  0  0 
 10 12  1  0  0  0  0 
M  END
> <CDK Fingerprint>
QAAAAAAAIAAAAAAACAAAAAAAAgAAAAAAAAAAAAgAAAAAgWAAAAAAQAAAAAAJAAACAAAAAAAAAAAAAADAAACAAAAAAAAAAAAAgAAAAAAAAAAAAAGAAAAAABAAAAAAAAAAAAAAAAAAAAAAAAAAAAAAAAIAAQAAAAAAIAGACAIAAA==

> <ActivityOutcome_CPDBAS_Rat>
inactive

$$$$

  CDK     0721101958

 13 12  0  0  0  0  0  0  0  0999 V2000
    0.8414    0.0000    0.0000 O   0  0  0  0  0  2  0  0  0  0  0  0
    1.9939   -0.6660    0.0000 N   0  0  0  0  0  4  0  0  0  0  0  0
    1.9939   -1.9939    0.0000 C   0  0  0  0  0  4  0  0  0  0  0  0
    3.3218   -1.9939    0.0000 N   0  0  0  0  0  4  0  0  0  0  0  0
    3.9878   -3.1463    0.0000 O   0  0  0  0  0  2  0  0  0  0  0  0
    3.9878   -0.8414    0.0000 O   0  0  0  0  0  1  0  0  0  0  0  0
    1.9939   -3.3218    0.0000 N   0  0  0  0  0  4  0  0  0  0  0  0
    3.1463   -3.9878    0.0000 O   0  0  0  0  0  2  0  0  0  0  0  0
    0.8414   -3.9878    0.0000 O   0  0  0  0  0  1  0  0  0  0  0  0
    0.6660   -1.9939    0.0000 N   0  0  0  0  0  4  0  0  0  0  0  0
    0.0000   -3.1463    0.0000 O   0  0  0  0  0  2  0  0  0  0  0  0
    0.0000   -0.8414    0.0000 O   0  0  0  0  0  1  0  0  0  0  0  0
    3.1463    0.0000    0.0000 O   0  0  0  0  0  1  0  0  0  0  0  0
  1  2  2  0  0  0  0 
  2  3  1  0  0  0  0 
  2 13  1  0  0  0  0 
  3  4  1  0  0  0  0 
  3  7  1  0  0  0  0 
  3 10  1  0  0  0  0 
  4  5  2  0  0  0  0 
  4  6  1  0  0  0  0 
  7  8  2  0  0  0  0 
  7  9  1  0  0  0  0 
 10 11  2  0  0  0  0 
 10 12  1  0  0  0  0 
M  CHG  1   2   1
M  CHG  1   4   1
M  CHG  1   6  -1
M  CHG  1   7   1
M  CHG  1   9  -1
M  CHG  1  10   1
M  CHG  1  12  -1
M  CHG  1  13  -1
M  END
> <CDK Fingerprint>
BAAAAAAAAAAEEAAIAAAAAAAABAAAABAAAAAAAAAAAAQAAABgAAAAAAAAAAAAAAAAAAAAAAIAAAAAAAAAAAAAAAAAAAAAAAAAAAAAAAAAAAAAAAAAAAAAAAAAAAAAAAAAAAAEAAAAAAAAAAAAAAAEAAAAAAAAAAAAAAAIAAACAAA=

> <ActivityOutcome_CPDBAS_Rat>
active

> <TD50_Rat_mmol>
0.00228

$$$$

  CDK     0721101958

 18 19  0  0  0  0  0  0  0  0999 V2000
    0.0000   -3.5462    0.0000 S   0  0  0  0  0  2  0  0  0  0  0  0
    0.6684   -2.3903    0.0000 C   0  0  0  0  0  4  0  0  0  0  0  0
    1.9657   -2.6734    0.0000 C   0  0  0  0  0  4  0  0  0  0  0  0
    0.8885   -4.5369    0.0000 C   0  0  0  0  0  4  0  0  0  0  0  0
    2.1073   -3.9944    0.0000 C   0  0  0  0  0  4  0  0  0  0  0  0
    3.2553   -4.6549    0.0000 C   0  0  0  0  0  4  0  0  0  0  0  0
    4.4111   -3.9944    0.0000 N   0  0  0  0  0  3  0  0  0  0  0  0
    5.5591   -4.6549    0.0000 C   0  0  0  0  0  4  0  0  0  0  0  0
    6.7150   -3.9944    0.0000 N   0  0  0  0  0  3  0  0  0  0  0  0
    7.8630   -4.6549    0.0000 C   0  0  0  0  0  4  0  0  0  0  0  0
    7.8630   -5.9837    0.0000 C   0  0  0  0  0  4  0  0  0  0  0  0
    5.5591   -5.9837    0.0000 C   0  0  0  0  0  4  0  0  0  0  0  0
    6.7150   -6.6521    0.0000 C   0  0  0  0  0  4  0  0  0  0  0  0
    4.4111   -2.6655    0.0000 C   0  0  0  0  0  4  0  0  0  0  0  0
    3.2553   -1.9972    0.0000 C   0  0  0  0  0  4  0  0  0  0  0  0
    3.2553   -0.6684    0.0000 N   0  0  0  0  0  3  0  0  0  0  0  0
    2.1073    0.0000    0.0000 C   0  0  0  0  0  4  0  0  0  0  0  0
    4.4111    0.0000    0.0000 C   0  0  0  0  0  4  0  0  0  0  0  0
  1  2  1  0  0  0  0 
  1  4  1  0  0  0  0 
  2  3  2  0  0  0  0 
  3  5  1  0  0  0  0 
  4  5  2  0  0  0  0 
  5  6  1  0  0  0  0 
  6  7  1  0  0  0  0 
  7  8  1  0  0  0  0 
  7 14  1  0  0  0  0 
  8  9  2  0  0  0  0 
  8 12  1  0  0  0  0 
  9 10  1  0  0  0  0 
 10 11  2  0  0  0  0 
 11 13  1  0  0  0  0 
 12 13  2  0  0  0  0 
 14 15  1  0  0  0  0 
 15 16  1  0  0  0  0 
 16 17  1  0  0  0  0 
 16 18  1  0  0  0  0 
M  END
> <CDK Fingerprint>
EEMI0AoEYhEYDAABIAAAAQhAAEFCQAkBAAEABAkmABAFYAAgBBAAAAAQACAACCAABBQAIAIIQgKAAYBEAALBwYBDAEAAEIAQYBAAgELwkIgAAAABAAiRgCUgAICBhGAAgBAAJAQAQACgABwAABAAABAAgAAgYACAgQggAgEA

> <ActivityOutcome_CPDBAS_Rat>
inactive

$$$$

  CDK     0721101958

 13 14  0  0  0  0  0  0  0  0999 V2000
    2.3264   -3.9944    0.0000 N   0  0  0  0  0  3  0  0  0  0  0  0
    3.4677   -3.3250    0.0000 C   0  0  0  0  0  4  0  0  0  0  0  0
    1.1687   -2.0082    0.0000 N   0  0  0  0  0  3  0  0  0  0  0  0
    1.1687   -3.3250    0.0000 C   0  0  0  0  0  4  0  0  0  0  0  0
    3.4677   -2.0082    0.0000 C   0  0  0  0  0  4  0  0  0  0  0  0
    2.3264   -1.3333    0.0000 C   0  0  0  0  0  4  0  0  0  0  0  0
    4.7186   -3.7420    0.0000 N   0  0  0  0  0  3  0  0  0  0  0  0
    4.7186   -1.5912    0.0000 N   0  0  0  0  0  3  0  0  0  0  0  0
    5.4868   -2.6501    0.0000 C   0  0  0  0  0  4  0  0  0  0  0  0
    0.0000   -4.0108    0.0000 O   0  0  0  0  0  2  0  0  0  0  0  0
    2.3264    0.0000    0.0000 O   0  0  0  0  0  2  0  0  0  0  0  0
    2.3264   -5.3277    0.0000 C   0  0  0  0  0  4  0  0  0  0  0  0
    0.0000   -1.3168    0.0000 C   0  0  0  0  0  4  0  0  0  0  0  0
  1  2  1  0  0  0  0 
  1  4  1  0  0  0  0 
  1 12  1  0  0  0  0 
  2  5  2  0  0  0  0 
  2  7  1  0  0  0  0 
  3  4  1  0  0  0  0 
  3  6  1  0  0  0  0 
  3 13  1  0  0  0  0 
  4 10  2  0  0  0  0 
  5  8  1  0  0  0  0 
  5  6  1  0  0  0  0 
  6 11  2  0  0  0  0 
  7  9  2  0  0  0  0 
  8  9  1  0  0  0  0 
M  END
> <CDK Fingerprint>
ICiCXJCOZwIQguAAImEAAABgAAEAQQAEIGAAAEyoBFIQDWAAQASAAAAAACAEoUFgAAyWAAICBEAgAICURAAB1REAAAQCQAEAQmRAAAAAkAAACAhCQQAMIAAAQwAAgAAAAEAwAEBTFAAAAAAAAAEAAgBBIgBUAMAYAIKQwQpQAg==

> <ActivityOutcome_CPDBAS_Rat>
inactive

$$$$

  CDK     0721101958

 14 16  0  0  0  0  0  0  0  0999 V2000
    4.1589   -0.2551    0.0000 N   0  0  0  0  0  3  0  0  0  0  0  0
    3.3781   -1.3296    0.0000 C   0  0  0  0  0  4  0  0  0  0  0  0
    4.1589   -2.4041    0.0000 N   0  0  0  0  0  3  0  0  0  0  0  0
    5.4266   -1.9944    0.0000 C   0  0  0  0  0  4  0  0  0  0  0  0
    5.4266   -0.6648    0.0000 C   0  0  0  0  0  4  0  0  0  0  0  0
    6.5784    0.0000    0.0000 C   0  0  0  0  0  4  0  0  0  0  0  0
    7.7302   -0.6648    0.0000 C   0  0  0  0  0  4  0  0  0  0  0  0
    7.7302   -1.9944    0.0000 C   0  0  0  0  0  4  0  0  0  0  0  0
    6.5784   -2.6592    0.0000 C   0  0  0  0  0  4  0  0  0  0  0  0
    2.0485   -1.3296    0.0000 C   0  0  0  0  0  4  0  0  0  0  0  0
    1.2678   -2.4041    0.0000 C   0  0  0  0  0  4  0  0  0  0  0  0
    0.0000   -1.9944    0.0000 S   0  0  0  0  0  2  0  0  0  0  0  0
    0.0000   -0.6648    0.0000 C   0  0  0  0  0  4  0  0  0  0  0  0
    1.2678   -0.2551    0.0000 N   0  0  0  0  0  3  0  0  0  0  0  0
  1  2  1  0  0  0  0 
  1  5  1  0  0  0  0 
  2  3  2  0  0  0  0 
  2 10  1  0  0  0  0 
  3  4  1  0  0  0  0 
  4  5  2  0  0  0  0 
  4  9  1  0  0  0  0 
  5  6  1  0  0  0  0 
  6  7  2  0  0  0  0 
  7  8  1  0  0  0  0 
  8  9  2  0  0  0  0 
 10 11  2  0  0  0  0 
 10 14  1  0  0  0  0 
 11 12  1  0  0  0  0 
 12 13  1  0  0  0  0 
 13 14  2  0  0  0  0 
M  END
> <CDK Fingerprint>
BAICAJAiAUEAECwAAQIIIwAAAQABgAIAAAAABADIAgAAjWIAAAIgwYACAAIAAAAgAQQACAAAAMAChAgAAAAAAQADAAQAJAAACAAEAAAAAABAAACAAgAAYgAgIAiCgQQgQgASACAIgEAEEAIIACUAAAQEEIAAYAggAAAAAAAAQg==

> <ActivityOutcome_CPDBAS_Rat>
inactive

$$$$

  CDK     0721101958

 21 21  0  0  0  0  0  0  0  0999 V2000
    4.5891   -1.9783    0.0000 C   0  0  0  0  0  4  0  0  0  0  0  0
    4.5891   -3.3355    0.0000 C   0  0  0  0  0  4  0  0  0  0  0  0
    3.4505   -1.3227    0.0000 C   0  0  0  0  0  4  0  0  0  0  0  0
    3.4505   -3.9911    0.0000 C   0  0  0  0  0  4  0  0  0  0  0  0
    2.3003   -1.9783    0.0000 C   0  0  0  0  0  4  0  0  0  0  0  0
    2.3003   -3.3355    0.0000 C   0  0  0  0  0  4  0  0  0  0  0  0
    1.1387   -3.9911    0.0000 S   0  0  0  0  0  6  0  0  0  0  0  0
    0.0000   -3.3355    0.0000 C   0  0  0  0  0  4  0  0  0  0  0  0
    5.7508   -1.3227    0.0000 C   0  0  0  0  0  4  0  0  0  0  0  0
    6.8895   -2.0013    0.0000 C   0  0  0  0  0  4  0  0  0  0  0  0
    6.8895   -3.3355    0.0000 C   0  0  0  0  0  4  0  0  0  0  0  0
    8.0511   -1.3227    0.0000 N   0  0  0  0  0  3  0  0  0  0  0  0
    9.2013   -2.0013    0.0000 C   0  0  0  0  0  4  0  0  0  0  0  0
    8.0511   -3.9911    0.0000 O   0  0  0  0  0  2  0  0  0  0  0  0
    9.2013   -3.3355    0.0000 O   0  0  0  0  0  2  0  0  0  0  0  0
   10.3629   -1.3227    0.0000 C   0  0  0  0  0  4  0  0  0  0  0  0
   11.5016   -2.0013    0.0000 Cl  0  0  0  0  0  1  0  0  0  0  0  0
   10.3629    0.0000    0.0000 Cl  0  0  0  0  0  1  0  0  0  0  0  0
    5.7508    0.0000    0.0000 O   0  0  0  0  0  2  0  0  0  0  0  0
    1.7942   -5.1297    0.0000 O   0  0  0  0  0  2  0  0  0  0  0  0
    0.4716   -5.1297    0.0000 O   0  0  0  0  0  2  0  0  0  0  0  0
  1  3  2  0  0  0  0 
  1  9  1  0  0  0  0 
  1  2  1  0  0  0  0 
  2  4  2  0  0  0  0 
  3  5  1  0  0  0  0 
  4  6  1  0  0  0  0 
  5  6  2  0  0  0  0 
  6  7  1  0  0  0  0 
  7  8  1  0  0  0  0 
  7 20  2  0  0  0  0 
  7 21  2  0  0  0  0 
  9 10  1  0  0  0  0 
  9 19  1  1  0  0  0 
 10 12  1  0  0  0  0 
 10 11  1  6  0  0  0 
 11 14  1  0  0  0  0 
 12 13  1  0  0  0  0 
 13 15  2  0  0  0  0 
 13 16  1  0  0  0  0 
 16 17  1  0  0  0  0 
 16 18  1  0  0  0  0 
M  END
> <CDK Fingerprint>
AJAAAAAAjAIAAhIAAQAAAAkKCCYAAAAgAgAAAgAEAAgAAeAAAAgAAAAAAAAAARgoABAADjAAIEAAABDAAIARkAQMDAAAEAAUQAIQIAABwAAgIECgAAAAAIMQAgAAhAAgAEAAwCQEAAAAAALAEAQIAMAcAIpQMSQBIQFAAgIAAA==

> <ActivityOutcome_CPDBAS_Rat>
inactive

$$$$

  CDK     0721101958

 11 13  0  0  0  0  0  0  0  0999 V2000
    0.0000   -2.4817    0.0000 S   0  0  0  0  0  2  0  0  0  0  0  0
    1.3302   -2.4817    0.0000 P   0  0  0  0  0  5  0  0  0  0  0  0
    1.3302   -1.1515    0.0000 N   0  0  0  0  0  3  0  0  0  0  0  0
    0.6651    0.0000    0.0000 C   0  0  0  0  0  4  0  0  0  0  0  0
    1.9953    0.0000    0.0000 C   0  0  0  0  0  4  0  0  0  0  0  0
    2.6604   -2.4817    0.0000 N   0  0  0  0  0  3  0  0  0  0  0  0
    3.8119   -1.8166    0.0000 C   0  0  0  0  0  4  0  0  0  0  0  0
    3.8119   -3.1468    0.0000 C   0  0  0  0  0  4  0  0  0  0  0  0
    1.3302   -3.8119    0.0000 N   0  0  0  0  0  3  0  0  0  0  0  0
    1.9953   -4.9634    0.0000 C   0  0  0  0  0  4  0  0  0  0  0  0
    0.6651   -4.9634    0.0000 C   0  0  0  0  0  4  0  0  0  0  0  0
  1  2  2  0  0  0  0 
  2  3  1  0  0  0  0 
  2  6  1  0  0  0  0 
  2  9  1  0  0  0  0 
  3  4  1  0  0  0  0 
  3  5  1  0  0  0  0 
  4  5  1  0  0  0  0 
  6  7  1  0  0  0  0 
  6  8  1  0  0  0  0 
  7  8  1  0  0  0  0 
  9 10  1  0  0  0  0 
  9 11  1  0  0  0  0 
 10 11  1  0  0  0  0 
M  END
> <CDK Fingerprint>
AgAAAAAAAAAAAAEAAAAAAAAAAAAAAAAAAAEBYAAAAAAAAAAAAAAAACAAAAEAAAAAAAAAAIAAAAAAAAQAAAAAAAAAAAAAgAAAAgAAAAAAAAAAAQAAAAAAAAQABAAQAAAEAAAAAAAAAAAAAAAAACAAAAAACAAAAgAA

> <ActivityOutcome_CPDBAS_Rat>
active

> <TD50_Rat_mmol>
0.000867

$$$$

  CDK     0721101958

  4  3  0  0  0  0  0  0  0  0999 V2000
    1.9950    0.0000    0.0000 C   0  0  0  0  0  4  0  0  0  0  0  0
    1.3292   -1.1518    0.0000 C   0  0  0  0  0  4  0  0  0  0  0  0
    1.9950   -2.3037    0.0000 S   0  0  0  0  0  2  0  0  0  0  0  0
    0.0000   -1.1518    0.0000 N   0  0  0  0  0  3  0  0  0  0  0  0
  1  2  1  0  0  0  0 
  2  3  2  0  0  0  0 
  2  4  1  0  0  0  0 
M  END
> <CDK Fingerprint>
AgAAAAAAAAAAAAAAAAAAAAAAAAAAAAAAAAABYAAAAAAAAAAAAAAAACAAAAAAAAAAAAAAAAAAAAAAAAAAAAAAAAAAAAAAAAAAAAAAAAAAAAAAEAAAAAAAAAAAAAAAAAAAAAAAAAAAAAAAAAAAAAAAAAAAAUAAAgAA

> <ActivityOutcome_CPDBAS_Rat>
active

> <TD50_Rat_mmol>
0.153

$$$$

  CDK     0721101958

 25 26  0  0  0  0  0  0  0  0999 V2000
    0.1773   -4.1192    0.0000 C   0  0  0  0  0  4  0  0  0  0  0  0
    1.3301   -3.4582    0.0000 C   0  0  0  0  0  4  0  0  0  0  0  0
    1.9911   -4.6029    0.0000 C   0  0  0  0  0  4  0  0  0  0  0  0
    3.3212   -4.6029    0.0000 C   0  0  0  0  0  4  0  0  0  0  0  0
    3.9902   -5.7556    0.0000 C   0  0  0  0  0  4  0  0  0  0  0  0
    3.3212   -6.9083    0.0000 C   0  0  0  0  0  4  0  0  0  0  0  0
    1.9911   -6.9083    0.0000 C   0  0  0  0  0  4  0  0  0  0  0  0
    1.3301   -5.7556    0.0000 C   0  0  0  0  0  4  0  0  0  0  0  0
    0.0000   -5.7556    0.0000 O   0  0  0  0  0  2  0  0  0  0  0  0
    3.9902   -8.0611    0.0000 C   0  0  0  0  0  4  0  0  0  0  0  0
    5.3203   -5.7556    0.0000 S   0  0  0  0  0  2  0  0  0  0  0  0
    5.9813   -4.6029    0.0000 C   0  0  0  0  0  4  0  0  0  0  0  0
    5.3203   -3.4582    0.0000 C   0  0  0  0  0  4  0  0  0  0  0  0
    5.9813   -2.3055    0.0000 C   0  0  0  0  0  4  0  0  0  0  0  0
    7.3114   -2.3055    0.0000 C   0  0  0  0  0  4  0  0  0  0  0  0
    7.9805   -3.4582    0.0000 C   0  0  0  0  0  4  0  0  0  0  0  0
    7.3114   -4.6029    0.0000 C   0  0  0  0  0  4  0  0  0  0  0  0
    7.9805   -5.7556    0.0000 C   0  0  0  0  0  4  0  0  0  0  0  0
    7.9805   -1.1527    0.0000 O   0  0  0  0  0  2  0  0  0  0  0  0
    5.3203   -1.1527    0.0000 C   0  0  0  0  0  4  0  0  0  0  0  0
    4.1676   -1.8137    0.0000 C   0  0  0  0  0  4  0  0  0  0  0  0
    4.6512    0.0000    0.0000 C   0  0  0  0  0  4  0  0  0  0  0  0
    6.4730   -0.4837    0.0000 C   0  0  0  0  0  4  0  0  0  0  0  0
    0.6610   -2.3055    0.0000 C   0  0  0  0  0  4  0  0  0  0  0  0
    2.4828   -2.7891    0.0000 C   0  0  0  0  0  4  0  0  0  0  0  0
  1  2  1  0  0  0  0 
  2  3  1  0  0  0  0 
  2 24  1  0  0  0  0 
  2 25  1  0  0  0  0 
  3  4  2  0  0  0  0 
  3  8  1  0  0  0  0 
  4  5  1  0  0  0  0 
  5  6  2  0  0  0  0 
  5 11  1  0  0  0  0 
  6  7  1  0  0  0  0 
  6 10  1  0  0  0  0 
  7  8  2  0  0  0  0 
  8  9  1  0  0  0  0 
 11 12  1  0  0  0  0 
 12 13  2  0  0  0  0 
 12 17  1  0  0  0  0 
 13 14  1  0  0  0  0 
 14 15  2  0  0  0  0 
 14 20  1  0  0  0  0 
 15 16  1  0  0  0  0 
 15 19  1  0  0  0  0 
 16 17  2  0  0  0  0 
 17 18  1  0  0  0  0 
 20 21  1  0  0  0  0 
 20 22  1  0  0  0  0 
 20 23  1  0  0  0  0 
M  END
> <CDK Fingerprint>
AIACAAAAAAAEAAEgAAAAAAAAEIAIAAAIAANhAQAAhIAAAADAAAABIAAAIgAQAABAIAAQQATAAAAWCAAEAAABAAAACCAAAIAQICAAgBAAACCAQBAAAIEFKAAAAMAhYAAEAIAWwBEEAAAEFECAAIAAAwABAAgBAAA=

> <ActivityOutcome_CPDBAS_Rat>
inactive

$$$$

  CDK     0721101958

 15 16  0  0  0  0  0  0  0  0999 V2000
    1.3265   -1.1560    0.0000 C   0  0  0  0  0  4  0  0  0  0  0  0
    1.9898   -2.3025    0.0000 C   0  0  0  0  0  4  0  0  0  0  0  0
    3.3258   -2.3025    0.0000 C   0  0  0  0  0  4  0  0  0  0  0  0
    3.9891   -1.1560    0.0000 C   0  0  0  0  0  4  0  0  0  0  0  0
    3.3258    0.0000    0.0000 C   0  0  0  0  0  4  0  0  0  0  0  0
    1.9898    0.0000    0.0000 C   0  0  0  0  0  4  0  0  0  0  0  0
    5.3156   -1.1560    0.0000 S   0  0  0  0  0  2  0  0  0  0  0  0
    6.3200   -2.0277    0.0000 C   0  0  0  0  0  4  0  0  0  0  0  0
    6.1399   -3.3447    0.0000 C   0  0  0  0  0  4  0  0  0  0  0  0
    7.1917   -4.1596    0.0000 C   0  0  0  0  0  4  0  0  0  0  0  0
    8.4235   -3.6574    0.0000 C   0  0  0  0  0  4  0  0  0  0  0  0
    8.6035   -2.3404    0.0000 C   0  0  0  0  0  4  0  0  0  0  0  0
    7.5517   -1.5255    0.0000 C   0  0  0  0  0  4  0  0  0  0  0  0
    0.0000   -1.1560    0.0000 N   0  0  0  0  0  3  0  0  0  0  0  0
    9.4752   -4.4723    0.0000 N   0  0  0  0  0  3  0  0  0  0  0  0
  1  2  2  0  0  0  0 
  1  6  1  0  0  0  0 
  1 14  1  0  0  0  0 
  2  3  1  0  0  0  0 
  3  4  2  0  0  0  0 
  4  5  1  0  0  0  0 
  4  7  1  0  0  0  0 
  5  6  2  0  0  0  0 
  7  8  1  0  0  0  0 
  8  9  2  0  0  0  0 
  8 13  1  0  0  0  0 
  9 10  1  0  0  0  0 
 10 11  2  0  0  0  0 
 11 12  1  0  0  0  0 
 11 15  1  0  0  0  0 
 12 13  2  0  0  0  0 
M  END
> <CDK Fingerprint>
AIAAAAAAAAAgAAAAAAAAAAAAAAAgAABAAAAAEAAMAAIAAAFgAAAABAAAAACAAAAAAAAAAAAQAABAAAAQAACAAAAAAAAAAAAAAAAAAAAAAAAAICAAgAAAACAAABAAAAAAIAAAAIAgQAAAAEACgBAAAAAEAACAAAAAAQAAAAADEAA=

> <ActivityOutcome_CPDBAS_Rat>
active

> <TD50_Rat_mmol>
0.0172

$$$$

  CDK     0721101958

 19 21  0  0  0  0  0  0  0  0999 V2000
    1.1046   -1.9079    0.0000 N   0  0  0  0  0  3  0  0  0  0  0  0
    1.1046   -3.1714    0.0000 C   0  0  0  0  0  4  0  0  0  0  0  0
    2.2091   -3.8074    0.0000 N   0  0  0  0  0  3  0  0  0  0  0  0
    3.2969   -3.1714    0.0000 C   0  0  0  0  0  4  0  0  0  0  0  0
    3.2969   -1.9079    0.0000 C   0  0  0  0  0  4  0  0  0  0  0  0
    2.2091   -1.2719    0.0000 C   0  0  0  0  0  4  0  0  0  0  0  0
    2.2091    0.0000    0.0000 S   0  0  0  0  0  2  0  0  0  0  0  0
    4.5103   -1.5146    0.0000 N   0  0  0  0  0  3  0  0  0  0  0  0
    5.2634   -2.5355    0.0000 C   0  0  0  0  0  4  0  0  0  0  0  0
    4.5103   -3.5731    0.0000 N   0  0  0  0  0  3  0  0  0  0  0  0
    4.5019   -6.0667    0.0000 C   0  0  0  0  0  4  0  0  0  0  0  0
    4.1337   -7.2967    0.0000 C   0  0  0  0  0  4  0  0  0  0  0  0
    2.8618   -7.3218    0.0000 C   0  0  0  0  0  4  0  0  0  0  0  0
    2.4434   -6.1169    0.0000 C   0  0  0  0  0  4  0  0  0  0  0  0
    3.4475   -5.3470    0.0000 O   0  0  0  0  0  2  0  0  0  0  0  0
    1.2217   -5.7571    0.0000 C   0  0  0  0  0  4  0  0  0  0  0  0
    0.9288   -4.5186    0.0000 O   0  0  0  0  0  2  0  0  0  0  0  0
    2.1422   -8.3678    0.0000 O   0  0  0  0  0  2  0  0  0  0  0  0
    0.0000   -3.8074    0.0000 N   0  0  0  0  0  3  0  0  0  0  0  0
  1  2  1  0  0  0  0 
  1  6  1  0  0  0  0 
  2  3  2  0  0  0  0 
  2 19  1  0  0  0  0 
  3  4  1  0  0  0  0 
  4  5  2  0  0  0  0 
  4 10  1  0  0  0  0 
  5  6  1  0  0  0  0 
  5  8  1  0  0  0  0 
  6  7  2  0  0  0  0 
  8  9  2  0  0  0  0 
  9 10  1  0  0  0  0 
 11 10  1  1  0  0  0 
 11 12  1  0  0  0  0 
 11 15  1  0  0  0  0 
 12 13  1  0  0  0  0 
 13 14  1  0  0  0  0 
 13 18  1  6  0  0  0 
 14 15  1  0  0  0  0 
 14 16  1  1  0  0  0 
 16 17  1  0  0  0  0 
M  END
> <CDK Fingerprint>
JOAQgqCAYiWyVOBmEjFsnCRgdkCikgEFsIAPVBNEIDQYkS3wFIHGkBLiCIYKDHgZbhcqjqIS4QHhAAKAwiJAcBMQB4GkIBDIAVIsYlAAIMCSeBSVx/kAbCBUUUJAYeIQCQABcGyz05YkYELAAhRDlFtCAUEAkXkIoEIRwAIDNkI=

> <ActivityOutcome_CPDBAS_Rat>
active

> <TD50_Rat_mmol>
0.00741

$$$$

  CDK     0721101958

  5  4  0  0  0  0  0  0  0  0999 V2000
    0.0000   -1.9945    0.0000 N   0  0  0  0  0  3  0  0  0  0  0  0
    1.1511   -1.3308    0.0000 C   0  0  0  0  0  4  0  0  0  0  0  0
    1.1511    0.0000    0.0000 S   0  0  0  0  0  2  0  0  0  0  0  0
    2.3056   -1.9945    0.0000 N   0  0  0  0  0  3  0  0  0  0  0  0
    3.4567   -1.3308    0.0000 N   0  0  0  0  0  3  0  0  0  0  0  0
  1  2  1  0  0  0  0 
  2  3  2  0  0  0  0 
  2  4  1  0  0  0  0 
  4  5  1  0  0  0  0 
M  END
> <CDK Fingerprint>
EAAIAAAAAAAAAAAAAAAAAAAAAAAAAAAAAAFgAAAAAAAAAAAABAAAAAAAAAAAAAAAAAAAAAAAAAAAAAAAAAAAAAAAAAAAAAAAAAAAAAAAAAAQAAAAAAAAAAAAIAAAAAAAAAAAAAAAAAAAAAAAAAAAAAABAAADAAA=

> <ActivityOutcome_CPDBAS_Rat>
inactive

$$$$

  CDK     0721101958

  8  8  0  0  0  0  0  0  0  0999 V2000
    4.6080   -2.6588    0.0000 O   0  0  0  0  0  2  0  0  0  0  0  0
    3.4560   -1.9953    0.0000 C   0  0  0  0  0  4  0  0  0  0  0  0
    2.3040   -2.6588    0.0000 N   0  0  0  0  0  3  0  0  0  0  0  0
    1.1520   -1.9953    0.0000 C   0  0  0  0  0  4  0  0  0  0  0  0
    0.0000   -2.6588    0.0000 S   0  0  0  0  0  2  0  0  0  0  0  0
    1.1520   -0.6635    0.0000 N   0  0  0  0  0  3  0  0  0  0  0  0
    2.3040    0.0000    0.0000 C   0  0  0  0  0  4  0  0  0  0  0  0
    3.4560   -0.6635    0.0000 C   0  0  0  0  0  4  0  0  0  0  0  0
  1  2  2  0  0  0  0 
  2  3  1  0  0  0  0 
  2  8  1  0  0  0  0 
  3  4  1  0  0  0  0 
  4  5  2  0  0  0  0 
  4  6  1  0  0  0  0 
  6  7  1  0  0  0  0 
  7  8  2  0  0  0  0 
M  END
> <CDK Fingerprint>
QUAgAAAAAAACEABAAAAQAAAAAAAAAEAAAAAAAgAAAAACABFgAAAAgAAAAAAAiABAIAAAAAEAEAgAACIAgAAAAIAAAAABAAABAAAAAAAAAIAAAAAAAIAAAAAQAAAAEAAIAABAAAABAAAAAgAgAAAAAAAAQAAEdIAAAEABEAACIAA=

> <ActivityOutcome_CPDBAS_Rat>
active

> <TD50_Rat_mmol>
0.0929

$$$$

  CDK     0721101958

  4  3  0  0  0  0  0  0  0  0999 V2000
    1.9950    0.0000    0.0000 N   0  0  0  0  0  3  0  0  0  0  0  0
    1.3292   -1.1518    0.0000 C   0  0  0  0  0  4  0  0  0  0  0  0
    1.9950   -2.3037    0.0000 S   0  0  0  0  0  2  0  0  0  0  0  0
    0.0000   -1.1518    0.0000 N   0  0  0  0  0  3  0  0  0  0  0  0
  1  2  1  0  0  0  0 
  2  3  2  0  0  0  0 
  2  4  1  0  0  0  0 
M  END
> <CDK Fingerprint>
EAAAAAAAAAAAAAAAAAAAAAAAAAAAAAAAAAFgAAAAAAAAAAAAAAAAAAAAAAAAAAAAAAAAAAAAAAAAAAAAAAAAAAAAAAAAAAAAAAAAAAAAAAAQAAAAAAAAAAAAAAAAAAAAAAAAAAAAAAAAAAAAAAAAAAABAAACAAA=

> <ActivityOutcome_CPDBAS_Rat>
active

> <TD50_Rat_mmol>
1.29

$$$$

  CDK     0721101958

 31 32  0  0  0  0  0  0  0  0999 V2000
   16.6026    0.0000    0.0000 C   0  0  0  0  0  4  0  0  0  0  0  0
   17.2824   -1.1535    0.0000 C   0  0  0  0  0  4  0  0  0  0  0  0
   18.6007   -1.1535    0.0000 C   0  0  0  0  0  4  0  0  0  0  0  0
   19.2599   -2.3071    0.0000 C   0  0  0  0  0  4  0  0  0  0  0  0
   18.6007   -3.4606    0.0000 C   0  0  0  0  0  4  0  0  0  0  0  0
   17.2824   -3.4606    0.0000 C   0  0  0  0  0  4  0  0  0  0  0  0
   16.6026   -2.3071    0.0000 C   0  0  0  0  0  4  0  0  0  0  0  0
   15.2843   -2.3071    0.0000 O   0  0  0  0  0  2  0  0  0  0  0  0
   14.6251   -3.4606    0.0000 C   0  0  0  0  0  4  0  0  0  0  0  0
   13.5952   -4.3257    0.0000 C   0  0  0  0  0  4  0  0  0  0  0  0
   12.3593   -3.8726    0.0000 C   0  0  0  0  0  4  0  0  0  0  0  0
   11.3293   -4.7171    0.0000 C   0  0  0  0  0  4  0  0  0  0  0  0
   10.0934   -4.2639    0.0000 C   0  0  0  0  0  4  0  0  0  0  0  0
    9.0635   -5.1085    0.0000 C   0  0  0  0  0  4  0  0  0  0  0  0
    7.8275   -4.6553    0.0000 C   0  0  0  0  0  4  0  0  0  0  0  0
    6.7976   -5.5205    0.0000 C   0  0  0  0  0  4  0  0  0  0  0  0
    5.5617   -5.0673    0.0000 C   0  0  0  0  0  4  0  0  0  0  0  0
    4.5317   -5.9118    0.0000 C   0  0  0  0  0  4  0  0  0  0  0  0
    3.2752   -5.4587    0.0000 C   0  0  0  0  0  4  0  0  0  0  0  0
    2.2659   -6.3238    0.0000 C   0  0  0  0  0  4  0  0  0  0  0  0
    1.0093   -5.8707    0.0000 C   0  0  0  0  0  4  0  0  0  0  0  0
    0.0000   -6.7152    0.0000 C   0  0  0  0  0  4  0  0  0  0  0  0
    0.7828   -4.5523    0.0000 C   0  0  0  0  0  4  0  0  0  0  0  0
    5.3145   -3.7490    0.0000 C   0  0  0  0  0  4  0  0  0  0  0  0
    9.8462   -2.9456    0.0000 C   0  0  0  0  0  4  0  0  0  0  0  0
   13.5952   -2.6160    0.0000 C   0  0  0  0  0  4  0  0  0  0  0  0
   15.2843   -4.6141    0.0000 C   0  0  0  0  0  4  0  0  0  0  0  0
   16.6026   -4.6141    0.0000 C   0  0  0  0  0  4  0  0  0  0  0  0
   19.2599   -4.6141    0.0000 C   0  0  0  0  0  4  0  0  0  0  0  0
   20.5988   -2.3071    0.0000 O   0  0  0  0  0  2  0  0  0  0  0  0
   19.2599    0.0000    0.0000 C   0  0  0  0  0  4  0  0  0  0  0  0
  1  2  1  0  0  0  0 
  2  3  2  0  0  0  0 
  2  7  1  0  0  0  0 
  3  4  1  0  0  0  0 
  3 31  1  0  0  0  0 
  4  5  2  0  0  0  0 
  4 30  1  0  0  0  0 
  5  6  1  0  0  0  0 
  5 29  1  0  0  0  0 
  6  7  2  0  0  0  0 
  6 28  1  0  0  0  0 
  7  8  1  0  0  0  0 
  8  9  1  0  0  0  0 
  9 10  1  0  0  0  0 
  9 26  1  0  0  0  0 
  9 27  1  0  0  0  0 
 10 11  1  0  0  0  0 
 11 12  1  0  0  0  0 
 12 13  1  0  0  0  0 
 13 14  1  0  0  0  0 
 13 25  1  0  0  0  0 
 14 15  1  0  0  0  0 
 15 16  1  0  0  0  0 
 16 17  1  0  0  0  0 
 17 18  1  0  0  0  0 
 17 24  1  0  0  0  0 
 18 19  1  0  0  0  0 
 19 20  1  0  0  0  0 
 20 21  1  0  0  0  0 
 21 22  1  0  0  0  0 
 21 23  1  0  0  0  0 
 27 28  1  0  0  0  0 
M  END
> <CDK Fingerprint>
IAAAAAAACAISATAOBABoAgAAABAg4AAEAAIAAAlIDQJhABACgIAAAAhgCAAUMAIgIAGACABAUCRIQEAFAhAWGAQAAAABDARiTGIAIZBBAQBAgACgQAiBEAQgSIgIKCAIAECgYCADBAAHQBCEACEAHACCABAEAhEABAAgAAA=

> <ActivityOutcome_CPDBAS_Rat>
inactive

$$$$

  CDK     0721101958

 34 35  0  0  0  0  0  0  0  0999 V2000
   18.6243   -3.4582    0.0000 C   0  0  0  0  0  4  0  0  0  0  0  0
   17.2908   -3.4582    0.0000 C   0  0  0  0  0  4  0  0  0  0  0  0
   16.6127   -4.6109    0.0000 C   0  0  0  0  0  4  0  0  0  0  0  0
   16.6127   -2.3054    0.0000 C   0  0  0  0  0  4  0  0  0  0  0  0
   15.2792   -2.3054    0.0000 O   0  0  0  0  0  2  0  0  0  0  0  0
   14.6237   -1.1527    0.0000 C   0  0  0  0  0  4  0  0  0  0  0  0
   15.2792    0.0000    0.0000 C   0  0  0  0  0  4  0  0  0  0  0  0
   13.6066   -2.0116    0.0000 C   0  0  0  0  0  4  0  0  0  0  0  0
   12.3635   -1.5596    0.0000 C   0  0  0  0  0  4  0  0  0  0  0  0
   11.3464   -2.4185    0.0000 C   0  0  0  0  0  4  0  0  0  0  0  0
   10.0806   -1.9664    0.0000 C   0  0  0  0  0  4  0  0  0  0  0  0
    9.0635   -2.8027    0.0000 C   0  0  0  0  0  4  0  0  0  0  0  0
    7.8204   -2.3506    0.0000 C   0  0  0  0  0  4  0  0  0  0  0  0
    6.8033   -3.2095    0.0000 C   0  0  0  0  0  4  0  0  0  0  0  0
    5.5602   -2.7575    0.0000 C   0  0  0  0  0  4  0  0  0  0  0  0
    4.5431   -3.6164    0.0000 C   0  0  0  0  0  4  0  0  0  0  0  0
    3.2773   -3.1643    0.0000 C   0  0  0  0  0  4  0  0  0  0  0  0
    2.2602   -4.0006    0.0000 C   0  0  0  0  0  4  0  0  0  0  0  0
    1.0171   -3.5486    0.0000 C   0  0  0  0  0  4  0  0  0  0  0  0
    0.0000   -4.4075    0.0000 C   0  0  0  0  0  4  0  0  0  0  0  0
    0.7911   -2.2376    0.0000 C   0  0  0  0  0  4  0  0  0  0  0  0
    5.3342   -1.4466    0.0000 C   0  0  0  0  0  4  0  0  0  0  0  0
    9.8546   -0.6555    0.0000 C   0  0  0  0  0  4  0  0  0  0  0  0
   13.6066   -0.2938    0.0000 C   0  0  0  0  0  4  0  0  0  0  0  0
   17.2908   -1.1527    0.0000 C   0  0  0  0  0  4  0  0  0  0  0  0
   16.6127    0.0000    0.0000 C   0  0  0  0  0  4  0  0  0  0  0  0
   19.2798   -2.3054    0.0000 C   0  0  0  0  0  4  0  0  0  0  0  0
   18.6243   -1.1527    0.0000 C   0  0  0  0  0  4  0  0  0  0  0  0
   19.2798    0.0000    0.0000 C   0  0  0  0  0  4  0  0  0  0  0  0
   20.6133   -2.3054    0.0000 O   0  0  0  0  0  2  0  0  0  0  0  0
   21.2688   -3.4582    0.0000 C   0  0  0  0  0  4  0  0  0  0  0  0
   20.6133   -4.6109    0.0000 O   0  0  0  0  0  2  0  0  0  0  0  0
   22.6023   -3.4582    0.0000 C   0  0  0  0  0  4  0  0  0  0  0  0
   19.2798   -4.6109    0.0000 C   0  0  0  0  0  4  0  0  0  0  0  0
  1  2  2  0  0  0  0 
  1 27  1  0  0  0  0 
  1 34  1  0  0  0  0 
  2  3  1  0  0  0  0 
  2  4  1  0  0  0  0 
  4  5  1  0  0  0  0 
  4 25  2  0  0  0  0 
  5  6  1  0  0  0  0 
  6  7  1  0  0  0  0 
  6  8  1  0  0  0  0 
  6 24  1  0  0  0  0 
  7 26  1  0  0  0  0 
  8  9  1  0  0  0  0 
  9 10  1  0  0  0  0 
 10 11  1  0  0  0  0 
 11 12  1  0  0  0  0 
 11 23  1  0  0  0  0 
 12 13  1  0  0  0  0 
 13 14  1  0  0  0  0 
 14 15  1  0  0  0  0 
 15 16  1  0  0  0  0 
 15 22  1  0  0  0  0 
 16 17  1  0  0  0  0 
 17 18  1  0  0  0  0 
 18 19  1  0  0  0  0 
 19 20  1  0  0  0  0 
 19 21  1  0  0  0  0 
 25 26  1  0  0  0  0 
 25 28  1  0  0  0  0 
 27 28  2  0  0  0  0 
 27 30  1  0  0  0  0 
 28 29  1  0  0  0  0 
 30 31  1  0  0  0  0 
 31 32  2  0  0  0  0 
 31 33  1  0  0  0  0 
M  END
> <CDK Fingerprint>
IAAAAAAACAISATAOBABoAgAAABAg4AAEAIIgAElIDQNhEBACgIAAAAhgCAAUMAIgIAGACCBAUCRoQEAFIhAWGCQAAACBDARiTGIAIZBBAQhAgACgQgiBEAwiSIgIKCBMAECkYCADFAAHQRiEACEAHACCUBAUAhEABAAoAAA=

> <ActivityOutcome_CPDBAS_Rat>
inactive

$$$$

  CDK     0721101958

 21 22  0  0  0  0  0  0  0  0999 V2000
    3.9433   -3.8107    0.0000 O   0  0  0  0  0  2  0  0  0  0  0  0
    4.6066   -2.6651    0.0000 S   0  0  0  0  0  6  0  0  0  0  0  0
    5.2698   -1.5074    0.0000 O   0  0  0  0  0  2  0  0  0  0  0  0
    3.4489   -1.9898    0.0000 C   0  0  0  0  0  4  0  0  0  0  0  0
    2.3033   -2.6651    0.0000 C   0  0  0  0  0  4  0  0  0  0  0  0
    1.1456   -1.9898    0.0000 C   0  0  0  0  0  4  0  0  0  0  0  0
    1.1456   -0.6633    0.0000 C   0  0  0  0  0  4  0  0  0  0  0  0
    2.3033    0.0000    0.0000 C   0  0  0  0  0  4  0  0  0  0  0  0
    3.4489   -0.6633    0.0000 C   0  0  0  0  0  4  0  0  0  0  0  0
    0.0000    0.0000    0.0000 C   0  0  0  0  0  4  0  0  0  0  0  0
    5.7522   -3.3283    0.0000 N   0  0  0  0  0  3  0  0  0  0  0  0
    6.9099   -2.6651    0.0000 C   0  0  0  0  0  4  0  0  0  0  0  0
    6.9099   -1.3265    0.0000 O   0  0  0  0  0  2  0  0  0  0  0  0
    8.0555   -3.3283    0.0000 N   0  0  0  0  0  3  0  0  0  0  0  0
    9.2011   -2.6651    0.0000 N   0  0  0  0  0  3  0  0  0  0  0  0
   10.2985   -3.4127    0.0000 C   0  0  0  0  0  4  0  0  0  0  0  0
   11.5768   -3.0148    0.0000 C   0  0  0  0  0  4  0  0  0  0  0  0
   12.0591   -1.7848    0.0000 C   0  0  0  0  0  4  0  0  0  0  0  0
   11.3959   -0.6271    0.0000 C   0  0  0  0  0  4  0  0  0  0  0  0
   10.0694   -0.4100    0.0000 C   0  0  0  0  0  4  0  0  0  0  0  0
    9.1288   -1.3506    0.0000 C   0  0  0  0  0  4  0  0  0  0  0  0
  1  2  2  0  0  0  0 
  2  3  2  0  0  0  0 
  2  4  1  0  0  0  0 
  2 11  1  0  0  0  0 
  4  5  2  0  0  0  0 
  4  9  1  0  0  0  0 
  5  6  1  0  0  0  0 
  6  7  2  0  0  0  0 
  7  8  1  0  0  0  0 
  7 10  1  0  0  0  0 
  8  9  2  0  0  0  0 
 11 12  1  0  0  0  0 
 12 13  2  0  0  0  0 
 12 14  1  0  0  0  0 
 14 15  1  0  0  0  0 
 15 16  1  0  0  0  0 
 15 21  1  0  0  0  0 
 16 17  1  0  0  0  0 
 17 18  1  0  0  0  0 
 18 19  1  0  0  0  0 
 19 20  1  0  0  0  0 
 20 21  1  0  0  0  0 
M  END
> <CDK Fingerprint>
AYCQICAAAAACEAAIMAGBAAABAEAAIBAAUgABEAAgAGAAAQlgRAQCAgIIAAAAAAASIABQACAQAAJACEAAzADBIgAEACAAABFACGAACKIAAIBAAIEKoABAAACBAAIAAoEAIUBAIMAjAAgAAAoiQBgAAIhQiACBYCAgAQABEAILBQA=

> <ActivityOutcome_CPDBAS_Rat>
inactive

$$$$

  CDK     0721101958

 18 18  0  0  0  0  0  0  0  0999 V2000
    6.4226    0.0000    0.0000 O   0  0  0  0  0  2  0  0  0  0  0  0
    5.7596   -1.1498    0.0000 S   0  0  0  0  0  6  0  0  0  0  0  0
    5.0862   -2.2997    0.0000 O   0  0  0  0  0  2  0  0  0  0  0  0
    6.9094   -1.8128    0.0000 C   0  0  0  0  0  4  0  0  0  0  0  0
    8.0593   -1.1498    0.0000 C   0  0  0  0  0  4  0  0  0  0  0  0
    9.2091   -1.8128    0.0000 C   0  0  0  0  0  4  0  0  0  0  0  0
    9.2091   -3.1491    0.0000 C   0  0  0  0  0  4  0  0  0  0  0  0
    8.0593   -3.8121    0.0000 C   0  0  0  0  0  4  0  0  0  0  0  0
    6.9094   -3.1491    0.0000 C   0  0  0  0  0  4  0  0  0  0  0  0
   10.3590   -3.8121    0.0000 C   0  0  0  0  0  4  0  0  0  0  0  0
    4.5994   -0.4869    0.0000 N   0  0  0  0  0  3  0  0  0  0  0  0
    3.4495   -1.1498    0.0000 C   0  0  0  0  0  4  0  0  0  0  0  0
    3.4495   -2.4861    0.0000 O   0  0  0  0  0  2  0  0  0  0  0  0
    2.2997   -0.4869    0.0000 N   0  0  0  0  0  3  0  0  0  0  0  0
    1.1498   -1.1498    0.0000 C   0  0  0  0  0  4  0  0  0  0  0  0
    1.1498   -2.4861    0.0000 C   0  0  0  0  0  4  0  0  0  0  0  0
    0.0000   -3.1491    0.0000 C   0  0  0  0  0  4  0  0  0  0  0  0
    0.0000   -4.4751    0.0000 C   0  0  0  0  0  4  0  0  0  0  0  0
  1  2  2  0  0  0  0 
  2  3  2  0  0  0  0 
  2  4  1  0  0  0  0 
  2 11  1  0  0  0  0 
  4  5  2  0  0  0  0 
  4  9  1  0  0  0  0 
  5  6  1  0  0  0  0 
  6  7  2  0  0  0  0 
  7  8  1  0  0  0  0 
  7 10  1  0  0  0  0 
  8  9  2  0  0  0  0 
 11 12  1  0  0  0  0 
 12 13  2  0  0  0  0 
 12 14  1  0  0  0  0 
 14 15  1  0  0  0  0 
 15 16  1  0  0  0  0 
 16 17  1  0  0  0  0 
 17 18  1  0  0  0  0 
M  END
> <CDK Fingerprint>
AIIAIAAAAAIQAEAAAQAAAAEAAAAAEAAAAAEQAAAAAAAACWBEAQCCAggAsAAAAQAgAEAgIhAACEAIAADAAMEggAQAIAAAEUAQYAAIIAAQgAAgQAqgAEAQAIEAAAACgQAgAEAAwCIAAAAAAgJAGAEAsGAIAIFgICABAAEIAoJEAA==

> <ActivityOutcome_CPDBAS_Rat>
inactive

$$$$

  CDK     0721101958

  7  7  0  0  0  0  0  0  0  0999 V2000
    0.0000   -1.1496    0.0000 C   0  0  0  0  0  4  0  0  0  0  0  0
    1.3292   -1.1496    0.0000 C   0  0  0  0  0  4  0  0  0  0  0  0
    1.9958    0.0000    0.0000 C   0  0  0  0  0  4  0  0  0  0  0  0
    3.3250    0.0000    0.0000 C   0  0  0  0  0  4  0  0  0  0  0  0
    3.9916   -1.1496    0.0000 C   0  0  0  0  0  4  0  0  0  0  0  0
    3.3250   -2.3032    0.0000 C   0  0  0  0  0  4  0  0  0  0  0  0
    1.9958   -2.3032    0.0000 C   0  0  0  0  0  4  0  0  0  0  0  0
  1  2  1  0  0  0  0 
  2  3  2  0  0  0  0 
  2  7  1  0  0  0  0 
  3  4  1  0  0  0  0 
  4  5  2  0  0  0  0 
  5  6  1  0  0  0  0 
  6  7  2  0  0  0  0 
M  END
> <CDK Fingerprint>
QAAAAAAAAAAAAAAAACAAAAAAAAAAQAAAAAAAAAAABAAAAAAAAAAAAAAAAAAAAAAAAAAAAAAAgAAAAACAACAAAABAIAAAAAAAAkAAAAAAAAAAgAAAAAAAAAAAAAAA

> <ActivityOutcome_CPDBAS_Rat>
active

> <TD50_Rat_mmol>
33.2

$$$$

  CDK     0721101958

 11 11  0  0  0  0  0  0  0  0999 V2000
    2.6588    0.0000    0.0000 C   0  0  0  0  0  4  0  0  0  0  0  0
    1.9941   -1.1486    0.0000 C   0  0  0  0  0  4  0  0  0  0  0  0
    2.6588   -2.3025    0.0000 C   0  0  0  0  0  4  0  0  0  0  0  0
    1.9941   -3.4564    0.0000 C   0  0  0  0  0  4  0  0  0  0  0  0
    0.6647   -3.4564    0.0000 C   0  0  0  0  0  4  0  0  0  0  0  0
    0.0000   -2.3025    0.0000 C   0  0  0  0  0  4  0  0  0  0  0  0
    0.6647   -1.1486    0.0000 C   0  0  0  0  0  4  0  0  0  0  0  0
    3.9882   -2.3025    0.0000 S   0  0  0  0  0  6  0  0  0  0  0  0
    3.9882   -0.9731    0.0000 O   0  0  0  0  0  2  0  0  0  0  0  0
    3.9882   -3.6319    0.0000 O   0  0  0  0  0  2  0  0  0  0  0  0
    5.3175   -2.3025    0.0000 N   0  0  0  0  0  3  0  0  0  0  0  0
  1  2  1  0  0  0  0 
  2  3  2  0  0  0  0 
  2  7  1  0  0  0  0 
  3  4  1  0  0  0  0 
  3  8  1  0  0  0  0 
  4  5  2  0  0  0  0 
  5  6  1  0  0  0  0 
  6  7  2  0  0  0  0 
  8  9  2  0  0  0  0 
  8 10  2  0  0  0  0 
  8 11  1  0  0  0  0 
M  END
> <CDK Fingerprint>
AIAAAAAAAAAAAAAAAAAAAAEAQAAAEAAAAAAQAAAAAAAACWAAAAAAAAAAAAAAAAAgAEABABAAAEAIAAAAAIAgAAQAAAAAEQAAQAAIIAAAAAAAAAKAAAAAAIEAAAAAgAAgAAAAwCEAAAAAAAJAEAAAAAAgAIAAICABAAAAAAAAAA==

> <ActivityOutcome_CPDBAS_Rat>
active

> <TD50_Rat_mmol>
23.1

$$$$

  CDK     0721101958

 11 11  0  0  0  0  0  0  0  0999 V2000
    0.0000   -2.6601    0.0000 N   0  0  0  0  0  3  0  0  0  0  0  0
    1.1539   -1.9968    0.0000 C   0  0  0  0  0  4  0  0  0  0  0  0
    1.1539   -0.6633    0.0000 O   0  0  0  0  0  2  0  0  0  0  0  0
    2.3008   -2.6601    0.0000 N   0  0  0  0  0  3  0  0  0  0  0  0
    3.4547   -1.9968    0.0000 C   0  0  0  0  0  4  0  0  0  0  0  0
    3.4547   -0.6633    0.0000 C   0  0  0  0  0  4  0  0  0  0  0  0
    4.6086    0.0000    0.0000 C   0  0  0  0  0  4  0  0  0  0  0  0
    5.7555   -0.6633    0.0000 C   0  0  0  0  0  4  0  0  0  0  0  0
    5.7555   -1.9968    0.0000 C   0  0  0  0  0  4  0  0  0  0  0  0
    4.6086   -2.6601    0.0000 C   0  0  0  0  0  4  0  0  0  0  0  0
    6.9094    0.0000    0.0000 C   0  0  0  0  0  4  0  0  0  0  0  0
  1  2  1  0  0  0  0 
  2  3  2  0  0  0  0 
  2  4  1  0  0  0  0 
  4  5  1  0  0  0  0 
  5  6  2  0  0  0  0 
  5 10  1  0  0  0  0 
  6  7  1  0  0  0  0 
  7  8  2  0  0  0  0 
  8  9  1  0  0  0  0 
  8 11  1  0  0  0  0 
  9 10  2  0  0  0  0 
M  END
> <CDK Fingerprint>
ASAgEABEAAAAAAAAAAQAAABBAAABAAAEwAIAAEBgAAAAAAAAAAAAAAEAIAAEAAAAAgBAAAAAgAQAAMAEAAAAAAEAAAAAAAQAAAAAAAAAAAAAAACAAAAAAIAAIABAAEAgAAAAAAACQAAAAAAAAgCAQADAAAAAAAACEAA=

> <ActivityOutcome_CPDBAS_Rat>
inactive

$$$$

  CDK     0721101958

 17 20  0  0  0  0  0  0  0  0999 V2000
    7.2655   -5.1440    0.0000 C   0  0  0  0  0  4  0  0  0  0  0  0
    6.5971   -6.2919    0.0000 C   0  0  0  0  0  4  0  0  0  0  0  0
    5.9359   -5.1440    0.0000 N   0  0  0  0  0  3  0  0  0  0  0  0
    4.7807   -4.4756    0.0000 C   0  0  0  0  0  4  0  0  0  0  0  0
    3.6328   -5.1440    0.0000 C   0  0  0  0  0  4  0  0  0  0  0  0
    2.4848   -4.4756    0.0000 C   0  0  0  0  0  4  0  0  0  0  0  0
    1.3296   -5.1440    0.0000 O   0  0  0  0  0  2  0  0  0  0  0  0
    2.4848   -3.1460    0.0000 C   0  0  0  0  0  4  0  0  0  0  0  0
    1.3296   -2.4775    0.0000 N   0  0  0  0  0  3  0  0  0  0  0  0
    0.0000   -2.4775    0.0000 C   0  0  0  0  0  4  0  0  0  0  0  0
    0.6684   -1.3296    0.0000 C   0  0  0  0  0  4  0  0  0  0  0  0
    4.7807   -3.1460    0.0000 C   0  0  0  0  0  4  0  0  0  0  0  0
    5.9359   -2.4775    0.0000 O   0  0  0  0  0  2  0  0  0  0  0  0
    3.6328   -2.4775    0.0000 C   0  0  0  0  0  4  0  0  0  0  0  0
    3.6328   -1.1480    0.0000 N   0  0  0  0  0  3  0  0  0  0  0  0
    2.9643    0.0000    0.0000 C   0  0  0  0  0  4  0  0  0  0  0  0
    4.3012    0.0000    0.0000 C   0  0  0  0  0  4  0  0  0  0  0  0
  1  2  1  0  0  0  0 
  1  3  1  0  0  0  0 
  2  3  1  0  0  0  0 
  3  4  1  0  0  0  0 
  4  5  2  0  0  0  0 
  4 12  1  0  0  0  0 
  5  6  1  0  0  0  0 
  6  7  2  0  0  0  0 
  6  8  1  0  0  0  0 
  8  9  1  0  0  0  0 
  8 14  2  0  0  0  0 
  9 10  1  0  0  0  0 
  9 11  1  0  0  0  0 
 10 11  1  0  0  0  0 
 12 13  2  0  0  0  0 
 12 14  1  0  0  0  0 
 14 15  1  0  0  0  0 
 15 16  1  0  0  0  0 
 15 17  1  0  0  0  0 
 16 17  1  0  0  0  0 
M  END
> <CDK Fingerprint>
QBBQAAAARAIQCAIAQQAAAQEAEIAEQAAAIIACQAAQAAAAgGAAAAAAAAAABAAgAAAiADAAACAQAFAQAADAAAQAAAAIGIVAAQAAAQAACIAAwgAABAAwAgAAAAEAEAAQAAABCEAYAgSACAACAAAAAAACgAAQAAY4CAAAEAAACGKAAA==

> <ActivityOutcome_CPDBAS_Rat>
active

> <TD50_Rat_mmol>
0.0000218

$$$$

  CDK     0721101958

 31 35  0  0  0  0  0  0  0  0999 V2000
    8.2043   -2.0076    0.0000 C   0  0  0  0  0  4  0  0  0  0  0  0
    6.9395   -2.4253    0.0000 C   0  0  0  0  0  4  0  0  0  0  0  0
    4.6650   -3.7366    0.0000 C   0  0  0  0  0  4  0  0  0  0  0  0
    3.4929   -4.3981    0.0000 C   0  0  0  0  0  4  0  0  0  0  0  0
    6.9395   -3.7366    0.0000 C   0  0  0  0  0  4  0  0  0  0  0  0
    5.7790   -4.4097    0.0000 C   0  0  0  0  0  4  0  0  0  0  0  0
    8.9934   -3.0984    0.0000 C   0  0  0  0  0  4  0  0  0  0  0  0
    3.4929   -5.7442    0.0000 C   0  0  0  0  0  4  0  0  0  0  0  0
    9.0050   -0.9516    0.0000 O   0  0  0  0  0  2  0  0  0  0  0  0
    4.6650   -2.4253    0.0000 C   0  0  0  0  0  4  0  0  0  0  0  0
    5.7790   -1.7639    0.0000 C   0  0  0  0  0  4  0  0  0  0  0  0
   10.2583   -1.3577    0.0000 C   0  0  0  0  0  4  0  0  0  0  0  0
   10.2583   -2.6922    0.0000 O   0  0  0  0  0  2  0  0  0  0  0  0
    2.3325   -3.7366    0.0000 C   0  0  0  0  0  4  0  0  0  0  0  0
    8.2043   -4.1428    0.0000 C   0  0  0  0  0  4  0  0  0  0  0  0
    8.2043   -0.6731    0.0000 C   0  0  0  0  0  4  0  0  0  0  0  0
    2.3325   -6.4289    0.0000 C   0  0  0  0  0  4  0  0  0  0  0  0
    5.7790   -5.7442    0.0000 C   0  0  0  0  0  4  0  0  0  0  0  0
    1.1720   -4.4097    0.0000 C   0  0  0  0  0  4  0  0  0  0  0  0
    1.1720   -5.7326    0.0000 C   0  0  0  0  0  4  0  0  0  0  0  0
    4.6650   -6.4289    0.0000 C   0  0  0  0  0  4  0  0  0  0  0  0
    4.6766   -5.0131    0.0000 F   0  0  0  0  0  1  0  0  0  0  0  0
    9.3880    0.0000    0.0000 O   0  0  0  0  0  2  0  0  0  0  0  0
    0.0000   -6.4173    0.0000 O   0  0  0  0  0  2  0  0  0  0  0  0
    6.9395   -1.0676    0.0000 C   0  0  0  0  0  4  0  0  0  0  0  0
    3.4929   -1.7523    0.0000 O   0  0  0  0  0  2  0  0  0  0  0  0
    3.4929   -3.0752    0.0000 C   0  0  0  0  0  4  0  0  0  0  0  0
    7.0671    0.0000    0.0000 C   0  0  0  0  0  4  0  0  0  0  0  0
   11.6044   -1.3577    0.0000 C   0  0  0  0  0  4  0  0  0  0  0  0
   10.6065   -0.0580    0.0000 C   0  0  0  0  0  4  0  0  0  0  0  0
    5.9067   -0.7079    0.0000 O   0  0  0  0  0  2  0  0  0  0  0  0
  1  2  1  0  0  0  0 
  1  7  1  0  0  0  0 
  1  9  1  6  0  0  0 
  1 16  1  1  0  0  0 
  2  5  1  0  0  0  0 
  2 11  1  0  0  0  0 
  2 25  1  1  0  0  0 
  3 10  1  0  0  0  0 
  3  4  1  0  0  0  0 
  3 22  1  6  0  0  0 
  3  6  1  0  0  0  0 
  4  8  1  0  0  0  0 
  4 14  1  0  0  0  0 
  4 27  1  1  0  0  0 
  5  6  1  0  0  0  0 
  5 15  1  0  0  0  0 
  6 18  1  0  0  0  0 
  7 13  1  6  0  0  0 
  7 15  1  0  0  0  0 
  8 17  2  0  0  0  0 
  8 21  1  0  0  0  0 
  9 12  1  0  0  0  0 
 10 11  1  0  0  0  0 
 10 26  1  1  0  0  0 
 12 29  1  0  0  0  0 
 12 30  1  0  0  0  0 
 12 13  1  0  0  0  0 
 14 19  2  0  0  0  0 
 16 23  2  0  0  0  0 
 16 28  1  0  0  0  0 
 17 20  1  0  0  0  0 
 18 21  1  0  0  0  0 
 19 20  1  0  0  0  0 
 20 24  2  0  0  0  0 
 28 31  1  0  0  0  0 
M  END
> <CDK Fingerprint>
AMAAIgAhAAEQIJQDFQQUABAkAAqAREAAwAAAEEABCACxUQjgCICCACAAAQEhEAEYJCJiAACYGABAABAiRGAEgAAEAEEESABEAAU0AEBAAQAAAAAIQCAEQARBMQAAAEIAAQBIQAAAQAEgAAIAoBAUgZAAAAAAsDigCAABRFYhBCA=

> <ActivityOutcome_CPDBAS_Rat>
active

> <TD50_Rat_mmol>
0.000122

$$$$

  CDK     0721101958

 19 21  0  0  0  0  0  0  0  0999 V2000
    6.9115   -0.6635    0.0000 N   0  0  0  0  0  3  0  0  0  0  0  0
    6.9115   -1.9905    0.0000 C   0  0  0  0  0  4  0  0  0  0  0  0
    5.7596   -2.6540    0.0000 C   0  0  0  0  0  4  0  0  0  0  0  0
    5.7596   -3.9903    0.0000 C   0  0  0  0  0  4  0  0  0  0  0  0
    6.9115   -4.6538    0.0000 N   0  0  0  0  0  3  0  0  0  0  0  0
    8.0635   -3.9903    0.0000 C   0  0  0  0  0  4  0  0  0  0  0  0
    8.0635   -2.6540    0.0000 N   0  0  0  0  0  3  0  0  0  0  0  0
    9.2154   -4.6538    0.0000 N   0  0  0  0  0  3  0  0  0  0  0  0
    4.6077   -4.6538    0.0000 N   0  0  0  0  0  3  0  0  0  0  0  0
    3.4558   -3.9903    0.0000 C   0  0  0  0  0  4  0  0  0  0  0  0
    3.4558   -2.6540    0.0000 C   0  0  0  0  0  4  0  0  0  0  0  0
    4.6077   -1.9905    0.0000 N   0  0  0  0  0  3  0  0  0  0  0  0
    2.3038   -1.9905    0.0000 C   0  0  0  0  0  4  0  0  0  0  0  0
    1.1519   -2.6540    0.0000 C   0  0  0  0  0  4  0  0  0  0  0  0
    0.0000   -1.9905    0.0000 C   0  0  0  0  0  4  0  0  0  0  0  0
    0.0000   -0.6635    0.0000 C   0  0  0  0  0  4  0  0  0  0  0  0
    1.1519    0.0000    0.0000 C   0  0  0  0  0  4  0  0  0  0  0  0
    2.3038   -0.6635    0.0000 C   0  0  0  0  0  4  0  0  0  0  0  0
    2.3038   -4.6538    0.0000 N   0  0  0  0  0  3  0  0  0  0  0  0
  1  2  1  0  0  0  0 
  2  3  2  0  0  0  0 
  2  7  1  0  0  0  0 
  3  4  1  0  0  0  0 
  3 12  1  0  0  0  0 
  4  5  2  0  0  0  0 
  4  9  1  0  0  0  0 
  5  6  1  0  0  0  0 
  6  7  2  0  0  0  0 
  6  8  1  0  0  0  0 
  9 10  2  0  0  0  0 
 10 11  1  0  0  0  0 
 10 19  1  0  0  0  0 
 11 12  2  0  0  0  0 
 11 13  1  0  0  0  0 
 13 14  2  0  0  0  0 
 13 18  1  0  0  0  0 
 14 15  1  0  0  0  0 
 15 16  2  0  0  0  0 
 16 17  1  0  0  0  0 
 17 18  2  0  0  0  0 
M  END
> <CDK Fingerprint>
CAAiCoBjBSBAhigKACEAIIhKYAYSAOACAIUAAwQMAgAAgnAAAAAAwQAAAhAAQghhAAiFCCoEAEIQEAEAAIQAgYQgAFQhQCARRUBAAAAABAaBAKEwAQABJLIQBiAAwIQhYYAWQiCAEUAoQAJTCIEAAEYUAIIAGAIQCAhAAgIBAg==

> <ActivityOutcome_CPDBAS_Rat>
inactive

$$$$

  CDK     0721101958

  4  3  0  0  0  0  0  0  0  0999 V2000
    1.3292   -1.1518    0.0000 C   0  0  0  0  0  4  0  0  0  0  0  0
    1.9950    0.0000    0.0000 Br  0  0  0  0  0  1  0  0  0  0  0  0
    1.9950   -2.3037    0.0000 Br  0  0  0  0  0  1  0  0  0  0  0  0
    0.0000   -1.1518    0.0000 Br  0  0  0  0  0  1  0  0  0  0  0  0
  1  2  1  0  0  0  0 
  1  3  1  0  0  0  0 
  1  4  1  0  0  0  0 
M  END
> <CDK Fingerprint>
AIAAAADAAAAAAAAAAAAAAAAAAAAAAAAAAAAAAAAAAAAAAAAAAAAAAAAAAAAAAAEAAAAAAAAAAAAAAAAAAAAAAAAAAAAAAAAAAAAAAAAAAAAAAAAAAAAAAAAAAAAAAAAAAAA=

> <ActivityOutcome_CPDBAS_Rat>
active

> <TD50_Rat_mmol>
2.56

$$$$

  CDK     0721101958

 17 16  0  0  0  0  0  0  0  0999 V2000
    9.9273   -3.3256    0.0000 C   0  0  0  0  0  4  0  0  0  0  0  0
    8.7757   -3.9908    0.0000 C   0  0  0  0  0  4  0  0  0  0  0  0
    7.6241   -3.3256    0.0000 C   0  0  0  0  0  4  0  0  0  0  0  0
    6.4726   -3.9908    0.0000 C   0  0  0  0  0  4  0  0  0  0  0  0
    5.3210   -3.3256    0.0000 O   0  0  0  0  0  2  0  0  0  0  0  0
    5.3210   -1.9954    0.0000 P   0  0  0  0  0  5  0  0  0  0  0  0
    6.6513   -1.9954    0.0000 O   0  0  0  0  0  2  0  0  0  0  0  0
    3.9908   -1.9954    0.0000 O   0  0  0  0  0  2  0  0  0  0  0  0
    3.3256   -3.1469    0.0000 C   0  0  0  0  0  4  0  0  0  0  0  0
    1.9954   -3.1469    0.0000 C   0  0  0  0  0  4  0  0  0  0  0  0
    1.3303   -4.2985    0.0000 C   0  0  0  0  0  4  0  0  0  0  0  0
    0.0000   -4.2985    0.0000 C   0  0  0  0  0  4  0  0  0  0  0  0
    5.3210   -0.6651    0.0000 O   0  0  0  0  0  2  0  0  0  0  0  0
    6.4726    0.0000    0.0000 C   0  0  0  0  0  4  0  0  0  0  0  0
    7.6241   -0.6651    0.0000 C   0  0  0  0  0  4  0  0  0  0  0  0
    8.7757    0.0000    0.0000 C   0  0  0  0  0  4  0  0  0  0  0  0
    9.9273   -0.6651    0.0000 C   0  0  0  0  0  4  0  0  0  0  0  0
  1  2  1  0  0  0  0 
  2  3  1  0  0  0  0 
  3  4  1  0  0  0  0 
  4  5  1  0  0  0  0 
  5  6  1  0  0  0  0 
  6  7  2  0  0  0  0 
  6  8  1  0  0  0  0 
  6 13  1  0  0  0  0 
  8  9  1  0  0  0  0 
  9 10  1  0  0  0  0 
 10 11  1  0  0  0  0 
 11 12  1  0  0  0  0 
 13 14  1  0  0  0  0 
 14 15  1  0  0  0  0 
 15 16  1  0  0  0  0 
 16 17  1  0  0  0  0 
M  END
> <CDK Fingerprint>
AgAgAgAAAAAAAAAAAAAACAAAAIAgAAAAAAgBYAAAAEAAAAAAAAQAECACAAAAAAAAAAAAAEQAAgAAAQAAgAAAAABAAAAAACAAAAAAAAAAAAAABBAAAIAAAAAAQAAAAAQIAgAAAQAUAAAAAAAAAAAQAAAAAAAAAIAA

> <ActivityOutcome_CPDBAS_Rat>
active

> <TD50_Rat_mmol>
0.717

$$$$

  CDK     0721101958

 33 32  0  0  0  0  0  0  0  0999 V2000
    5.7724   -7.3216    0.0000 O   0  0  0  0  0  2  0  0  0  0  0  0
    6.9158   -7.9855    0.0000 C   0  0  0  0  0  4  0  0  0  0  0  0
    8.0777   -7.3216    0.0000 O   0  0  0  0  0  2  0  0  0  0  0  0
    8.0777   -5.9753    0.0000 C   0  0  0  0  0  4  0  0  0  0  0  0
    9.2211   -5.3114    0.0000 C   0  0  0  0  0  4  0  0  0  0  0  0
   10.3645   -5.9753    0.0000 O   0  0  0  0  0  2  0  0  0  0  0  0
   11.5264   -5.3114    0.0000 C   0  0  0  0  0  4  0  0  0  0  0  0
   12.6698   -5.9753    0.0000 O   0  0  0  0  0  2  0  0  0  0  0  0
   11.5264   -3.9835    0.0000 C   0  0  0  0  0  4  0  0  0  0  0  0
   12.6698   -3.3196    0.0000 C   0  0  0  0  0  4  0  0  0  0  0  0
   13.8317   -3.9835    0.0000 C   0  0  0  0  0  4  0  0  0  0  0  0
   14.9936   -3.3196    0.0000 C   0  0  0  0  0  4  0  0  0  0  0  0
   16.1370   -3.9835    0.0000 C   0  0  0  0  0  4  0  0  0  0  0  0
   17.2804   -3.3196    0.0000 C   0  0  0  0  0  4  0  0  0  0  0  0
   18.4423   -3.9835    0.0000 C   0  0  0  0  0  4  0  0  0  0  0  0
    6.9158   -5.3114    0.0000 C   0  0  0  0  0  4  0  0  0  0  0  0
    5.7724   -5.9753    0.0000 O   0  0  0  0  0  2  0  0  0  0  0  0
    4.6106   -5.3114    0.0000 C   0  0  0  0  0  4  0  0  0  0  0  0
    4.6106   -3.9835    0.0000 O   0  0  0  0  0  2  0  0  0  0  0  0
    3.4487   -5.9753    0.0000 C   0  0  0  0  0  4  0  0  0  0  0  0
    2.3053   -5.3114    0.0000 C   0  0  0  0  0  4  0  0  0  0  0  0
    2.3053   -3.9835    0.0000 C   0  0  0  0  0  4  0  0  0  0  0  0
    1.1434   -3.3196    0.0000 C   0  0  0  0  0  4  0  0  0  0  0  0
    1.1434   -1.9918    0.0000 C   0  0  0  0  0  4  0  0  0  0  0  0
    0.0000   -1.3278    0.0000 C   0  0  0  0  0  4  0  0  0  0  0  0
    0.0000    0.0000    0.0000 C   0  0  0  0  0  4  0  0  0  0  0  0
    6.9158   -9.3133    0.0000 C   0  0  0  0  0  4  0  0  0  0  0  0
    5.7724   -9.9773    0.0000 C   0  0  0  0  0  4  0  0  0  0  0  0
    4.6106   -9.3133    0.0000 C   0  0  0  0  0  4  0  0  0  0  0  0
    3.4487   -9.9773    0.0000 C   0  0  0  0  0  4  0  0  0  0  0  0
    2.3053   -9.3133    0.0000 C   0  0  0  0  0  4  0  0  0  0  0  0
    1.1434   -9.9773    0.0000 C   0  0  0  0  0  4  0  0  0  0  0  0
    0.0000   -9.3133    0.0000 C   0  0  0  0  0  4  0  0  0  0  0  0
  1  2  2  0  0  0  0 
  2  3  1  0  0  0  0 
  2 27  1  0  0  0  0 
  3  4  1  0  0  0  0 
  4  5  1  0  0  0  0 
  4 16  1  0  0  0  0 
  5  6  1  0  0  0  0 
  6  7  1  0  0  0  0 
  7  8  2  0  0  0  0 
  7  9  1  0  0  0  0 
  9 10  1  0  0  0  0 
 10 11  1  0  0  0  0 
 11 12  1  0  0  0  0 
 12 13  1  0  0  0  0 
 13 14  1  0  0  0  0 
 14 15  1  0  0  0  0 
 16 17  1  0  0  0  0 
 17 18  1  0  0  0  0 
 18 19  2  0  0  0  0 
 18 20  1  0  0  0  0 
 20 21  1  0  0  0  0 
 21 22  1  0  0  0  0 
 22 23  1  0  0  0  0 
 23 24  1  0  0  0  0 
 24 25  1  0  0  0  0 
 25 26  1  0  0  0  0 
 27 28  1  0  0  0  0 
 28 29  1  0  0  0  0 
 29 30  1  0  0  0  0 
 30 31  1  0  0  0  0 
 31 32  1  0  0  0  0 
 32 33  1  0  0  0  0 
M  END
> <CDK Fingerprint>
AICEAAAAAAAAAAACUQAAAhAkAAAICAEAwAAABYAAAAABAQBgQIAAAAAgAAEgAABYJAIgAAAAAAABAAAgQEAAAAAAAAAAAgCAAAQEAEQAERAAAAABACAEQAABEAAAAEIgAABIJAAAQAAAAAAAABAAAQAAAAAAWLAAAAgAAgQAAAA=

> <ActivityOutcome_CPDBAS_Rat>
active

> <TD50_Rat_mmol>
11.7

$$$$

  CDK     0721101958

  8  7  0  0  0  0  0  0  0  0999 V2000
    1.3283   -1.3283    0.0000 C   0  0  0  0  0  4  0  0  0  0  0  0
    1.3283   -2.6606    0.0000 C   0  0  0  0  0  4  0  0  0  0  0  0
    2.6606   -2.6606    0.0000 F   0  0  0  0  0  1  0  0  0  0  0  0
    1.3283   -3.9889    0.0000 Cl  0  0  0  0  0  1  0  0  0  0  0  0
    0.0000   -2.6606    0.0000 Cl  0  0  0  0  0  1  0  0  0  0  0  0
    0.0000   -1.3283    0.0000 F   0  0  0  0  0  1  0  0  0  0  0  0
    1.3283    0.0000    0.0000 F   0  0  0  0  0  1  0  0  0  0  0  0
    2.6606   -1.3283    0.0000 Cl  0  0  0  0  0  1  0  0  0  0  0  0
  1  2  1  0  0  0  0 
  1  6  1  0  0  0  0 
  1  7  1  0  0  0  0 
  1  8  1  0  0  0  0 
  2  3  1  0  0  0  0 
  2  4  1  0  0  0  0 
  2  5  1  0  0  0  0 
M  END
> <CDK Fingerprint>
MAAAwAAAAAAgAAAAAAAAACAAAAAGAAAAAAAAAAAAAAEAAAAEAACABAAAAAAAAAAAAAAAAAAAAAAAAAAAAAAAAAAAAAAAAAAAAAAAAAAAAAAAAAAAAAAAAAAAAAAAAAAA

> <ActivityOutcome_CPDBAS_Rat>
inactive

$$$$

  CDK     0721101958

  7  6  0  0  0  0  0  0  0  0999 V2000
    2.6608   -1.9956    0.0000 Cl  0  0  0  0  0  1  0  0  0  0  0  0
    1.3304   -1.9956    0.0000 C   0  0  0  0  0  4  0  0  0  0  0  0
    1.3304   -0.6652    0.0000 C   0  0  0  0  0  4  0  0  0  0  0  0
    0.1796    0.0000    0.0000 O   0  0  0  0  0  2  0  0  0  0  0  0
    2.4812    0.0000    0.0000 O   0  0  0  0  0  2  0  0  0  0  0  0
    1.3304   -3.3260    0.0000 Cl  0  0  0  0  0  1  0  0  0  0  0  0
    0.0000   -1.9956    0.0000 Cl  0  0  0  0  0  1  0  0  0  0  0  0
  1  2  1  0  0  0  0 
  2  3  1  0  0  0  0 
  2  6  1  0  0  0  0 
  2  7  1  0  0  0  0 
  3  4  2  0  0  0  0 
  3  5  1  0  0  0  0 
M  END
> <CDK Fingerprint>
AgAAAAAAAAAAAAAAAAAAAAACAAAAAAAA4AAAAAAAAAAAAAAAACAAAAAGAAAAAAAAAAAAAAEAAAAIAAAAAAAAAAAAAAAAAAAAAAAAAAAAABAAAAAAAAAAQAAAAAAAAAAAAAAAAAAAAAAAAFAAAAAAAAAAAAAA

> <ActivityOutcome_CPDBAS_Rat>
inactive

$$$$

  CDK     0721101958

 10 10  0  0  0  0  0  0  0  0999 V2000
    5.3182   -2.3028    0.0000 N   0  0  0  0  0  3  0  0  0  0  0  0
    3.9887   -2.3028    0.0000 C   0  0  0  0  0  4  0  0  0  0  0  0
    3.3239   -3.4568    0.0000 C   0  0  0  0  0  4  0  0  0  0  0  0
    1.9943   -3.4568    0.0000 C   0  0  0  0  0  4  0  0  0  0  0  0
    1.3296   -2.3028    0.0000 C   0  0  0  0  0  4  0  0  0  0  0  0
    1.9943   -1.1487    0.0000 C   0  0  0  0  0  4  0  0  0  0  0  0
    3.3239   -1.1487    0.0000 C   0  0  0  0  0  4  0  0  0  0  0  0
    3.9887    0.0000    0.0000 Cl  0  0  0  0  0  1  0  0  0  0  0  0
    0.0000   -2.3028    0.0000 Cl  0  0  0  0  0  1  0  0  0  0  0  0
    3.9887   -4.6056    0.0000 Cl  0  0  0  0  0  1  0  0  0  0  0  0
  1  2  1  0  0  0  0 
  2  3  2  0  0  0  0 
  2  7  1  0  0  0  0 
  3  4  1  0  0  0  0 
  3 10  1  0  0  0  0 
  4  5  2  0  0  0  0 
  5  6  1  0  0  0  0 
  5  9  1  0  0  0  0 
  6  7  2  0  0  0  0 
  7  8  1  0  0  0  0 
M  END
> <CDK Fingerprint>
CAAAAAAAACAAAEAAAAAAAAAAAAAAAEAAAAAAAAQAAgAAAOAAAAAAAAAAAAAAAAAgAAAAAAAAAEAAAAQAAAABAAAAAAAAAAAAAAAAAAAAAAAEAAAAAAAAAQEAAAAAAAAgAAAAgCAEAAAAABIAAAAAAAAAAIAAAAAAAAAAAAIQAA==

> <ActivityOutcome_CPDBAS_Rat>
inactive

$$$$

  CDK     0721101958

  5  4  0  0  0  0  0  0  0  0999 V2000
    3.4567   -1.9945    0.0000 Cl  0  0  0  0  0  1  0  0  0  0  0  0
    2.3056   -1.3308    0.0000 C   0  0  0  0  0  4  0  0  0  0  0  0
    1.1511   -1.9945    0.0000 C   0  0  0  0  0  4  0  0  0  0  0  0
    0.0000   -1.3308    0.0000 Cl  0  0  0  0  0  1  0  0  0  0  0  0
    2.3056    0.0000    0.0000 Cl  0  0  0  0  0  1  0  0  0  0  0  0
  1  2  1  0  0  0  0 
  2  3  1  0  0  0  0 
  2  5  1  0  0  0  0 
  3  4  1  0  0  0  0 
M  END
> <CDK Fingerprint>
AMAAAAAAAAAAAAAAAAAgAAAABgAAAAAAAAAAAAABAAAABAAAAAAAAAAAAAAAAAAAAAAAAAAAAAAAAAAAAAAAAAAAAAAAAAAAAAAAAAAAAAAAAAAAAAAAAAAAAAAAAA==

> <ActivityOutcome_CPDBAS_Rat>
inactive

$$$$

  CDK     0721101958

  5  4  0  0  0  0  0  0  0  0999 V2000
    1.3300   -2.6600    0.0000 C   0  0  0  0  0  4  0  0  0  0  0  0
    1.3300   -1.3300    0.0000 C   0  0  0  0  0  4  0  0  0  0  0  0
    0.0000   -1.3300    0.0000 Cl  0  0  0  0  0  1  0  0  0  0  0  0
    1.3300    0.0000    0.0000 Cl  0  0  0  0  0  1  0  0  0  0  0  0
    2.6600   -1.3300    0.0000 Cl  0  0  0  0  0  1  0  0  0  0  0  0
  1  2  1  0  0  0  0 
  2  3  1  0  0  0  0 
  2  4  1  0  0  0  0 
  2  5  1  0  0  0  0 
M  END
> <CDK Fingerprint>
AMAAAAAAAAAAAAAAAAAgAAAABgAAAAAAAAAAAAABAAAAAAAAAAAAAAAAAAAAAAAAAAAAAAAAAAAAAAAAAAAAAAAAAAAAAAAAAAAAAAAAAAAAAAAAAAAAAAAAAAAAAA==

> <ActivityOutcome_CPDBAS_Rat>
inactive

$$$$

  CDK     0721101958

  5  4  0  0  0  0  0  0  0  0999 V2000
    3.4567   -1.9945    0.0000 Cl  0  0  0  0  0  1  0  0  0  0  0  0
    2.3056   -1.3308    0.0000 C   0  0  0  0  0  4  0  0  0  0  0  0
    1.1511   -1.9945    0.0000 C   0  0  0  0  0  4  0  0  0  0  0  0
    0.0000   -1.3308    0.0000 Cl  0  0  0  0  0  1  0  0  0  0  0  0
    2.3056    0.0000    0.0000 Cl  0  0  0  0  0  1  0  0  0  0  0  0
  1  2  1  0  0  0  0 
  2  3  2  0  0  0  0 
  2  5  1  0  0  0  0 
  3  4  1  0  0  0  0 
M  END
> <CDK Fingerprint>
AMAAAAAAAAAAAAAAAAAAAAAABAAQAAAAQAAAAAABAAAAAAAAAAAAAAAAAAAAAAAAAACAAAAAAAAAAAAAAAAAAAAAAAAAAAAAAAAAAAAAAAAAAAAAAAAAAAAAAAAAAA==

> <ActivityOutcome_CPDBAS_Rat>
active

> <TD50_Rat_mmol>
5.08

$$$$

  CDK     0721101958

  5  4  0  0  0  0  0  0  0  0999 V2000
    3.4567   -1.9945    0.0000 Cl  0  0  0  0  0  1  0  0  0  0  0  0
    2.3056   -1.3308    0.0000 C   0  0  0  0  0  4  0  0  0  0  0  0
    1.1511   -1.9945    0.0000 C   0  0  0  0  0  4  0  0  0  0  0  0
    0.0000   -1.3308    0.0000 Cl  0  0  0  0  0  1  0  0  0  0  0  0
    2.3056    0.0000    0.0000 Cl  0  0  0  0  0  1  0  0  0  0  0  0
  1  2  1  0  0  0  0 
  2  3  2  0  0  0  0 
  2  5  1  0  0  0  0 
  3  4  1  0  0  0  0 
M  END
> <CDK Fingerprint>
AMAAAAAAAAAAAAAAAAAAAAAABAAQAAAAQAAAAAABAAAAAAAAAAAAAAAAAAAAAAAAAACAAAAAAAAAAAAAAAAAAAAAAAAAAAAAAAAAAAAAAAAAAAAAAAAAAAAAAAAAAA==

> <ActivityOutcome_CPDBAS_Rat>
inactive

$$$$

  CDK     0721101958

  5  4  0  0  0  0  0  0  0  0999 V2000
    1.3300   -2.6600    0.0000 F   0  0  0  0  0  1  0  0  0  0  0  0
    1.3300   -1.3300    0.0000 C   0  0  0  0  0  4  0  0  0  0  0  0
    0.0000   -1.3300    0.0000 Cl  0  0  0  0  0  1  0  0  0  0  0  0
    1.3300    0.0000    0.0000 Cl  0  0  0  0  0  1  0  0  0  0  0  0
    2.6600   -1.3300    0.0000 Cl  0  0  0  0  0  1  0  0  0  0  0  0
  1  2  1  0  0  0  0 
  2  3  1  0  0  0  0 
  2  4  1  0  0  0  0 
  2  5  1  0  0  0  0 
M  END
> <CDK Fingerprint>
AMAAAAAAIAAAAAAAAAAAAAAABgAAAAAAAAAAAAABAAAAAAAAAAAAAAAAAAAAAAAAAAAAAAAAAAAAAAAAAAAAAAAAAAAAAAAAAAAAAAAAAAAAAAAAAAAAAAAAAAAAAA==

> <ActivityOutcome_CPDBAS_Rat>
inactive

$$$$

  CDK     0721101958

 16 17  0  0  0  0  0  0  0  0999 V2000
    4.9479   -4.0566    0.0000 O   0  0  0  0  0  2  0  0  0  0  0  0
    3.9584   -3.1652    0.0000 C   0  0  0  0  0  4  0  0  0  0  0  0
    4.1019   -1.8432    0.0000 N   0  0  0  0  0  3  0  0  0  0  0  0
    2.8857   -1.2993    0.0000 C   0  0  0  0  0  4  0  0  0  0  0  0
    2.6062    0.0000    0.0000 O   0  0  0  0  0  2  0  0  0  0  0  0
    1.9943   -2.2889    0.0000 C   0  0  0  0  0  4  0  0  0  0  0  0
    2.6590   -3.4447    0.0000 C   0  0  0  0  0  4  0  0  0  0  0  0
    1.9943   -4.5929    0.0000 C   0  0  0  0  0  4  0  0  0  0  0  0
    0.6648   -4.5929    0.0000 C   0  0  0  0  0  4  0  0  0  0  0  0
    0.0000   -3.4447    0.0000 C   0  0  0  0  0  4  0  0  0  0  0  0
    0.6648   -2.2889    0.0000 C   0  0  0  0  0  4  0  0  0  0  0  0
    5.2501   -1.1784    0.0000 S   0  0  0  0  0  2  0  0  0  0  0  0
    6.4059   -1.8432    0.0000 C   0  0  0  0  0  4  0  0  0  0  0  0
    7.0707   -0.6874    0.0000 Cl  0  0  0  0  0  1  0  0  0  0  0  0
    7.5541   -2.5080    0.0000 Cl  0  0  0  0  0  1  0  0  0  0  0  0
    5.7411   -2.9914    0.0000 Cl  0  0  0  0  0  1  0  0  0  0  0  0
  1  2  2  0  0  0  0 
  2  3  1  0  0  0  0 
  2  7  1  0  0  0  0 
  3  4  1  0  0  0  0 
  3 12  1  0  0  0  0 
  4  5  2  0  0  0  0 
  4  6  1  0  0  0  0 
  6  7  2  0  0  0  0 
  6 11  1  0  0  0  0 
  7  8  1  0  0  0  0 
  8  9  2  0  0  0  0 
  9 10  1  0  0  0  0 
 10 11  2  0  0  0  0 
 12 13  1  0  0  0  0 
 13 14  1  0  0  0  0 
 13 15  1  0  0  0  0 
 13 16  1  0  0  0  0 
M  END
> <CDK Fingerprint>
IBAAABAAgEIQgAAAABgAACAABAAIAAgAADAAAAAAJBACQehAAAAUBAgAAIAAAQAgAAAEBACAAEAIABCEAAEhgAQCQAQAABACAAAAgAQAgAAAAAaAAIAgAYAAAAAIgQAoAEAAQCGAAAAAAAJAAAAgQAADCIByCFCIAIAAAAIAAQ==

> <ActivityOutcome_CPDBAS_Rat>
inactive

$$$$

  CDK     0721101958

 10 10  0  0  0  0  0  0  0  0999 V2000
    5.3182   -2.3028    0.0000 O   0  0  0  0  0  2  0  0  0  0  0  0
    3.9887   -2.3028    0.0000 C   0  0  0  0  0  4  0  0  0  0  0  0
    3.3239   -3.4568    0.0000 C   0  0  0  0  0  4  0  0  0  0  0  0
    1.9943   -3.4568    0.0000 C   0  0  0  0  0  4  0  0  0  0  0  0
    1.3296   -2.3028    0.0000 C   0  0  0  0  0  4  0  0  0  0  0  0
    1.9943   -1.1487    0.0000 C   0  0  0  0  0  4  0  0  0  0  0  0
    3.3239   -1.1487    0.0000 C   0  0  0  0  0  4  0  0  0  0  0  0
    3.9887    0.0000    0.0000 Cl  0  0  0  0  0  1  0  0  0  0  0  0
    0.0000   -2.3028    0.0000 Cl  0  0  0  0  0  1  0  0  0  0  0  0
    3.9887   -4.6056    0.0000 Cl  0  0  0  0  0  1  0  0  0  0  0  0
  1  2  1  0  0  0  0 
  2  3  2  0  0  0  0 
  2  7  1  0  0  0  0 
  3  4  1  0  0  0  0 
  3 10  1  0  0  0  0 
  4  5  2  0  0  0  0 
  5  6  1  0  0  0  0 
  5  9  1  0  0  0  0 
  6  7  2  0  0  0  0 
  7  8  1  0  0  0  0 
M  END
> <CDK Fingerprint>
CAAAAAAAAAAAAEIAAAAAAAAAAAAAAAAAAAAAAAAAAAAAAuEAAAAAAAAAAAAAAAAgAAAgAAAAAEAAAAQAAAABAAAAAAAAAAAAAAAAAAAAgAAEAAAAAAAAAQEAAAAAAAAgAAAAgCAkAAAAABIAAAAAAAAAAIAAAAAAAAAAAAAAAA==

> <ActivityOutcome_CPDBAS_Rat>
active

> <TD50_Rat_mmol>
2.05

$$$$

  CDK     0721101958

 14 14  0  0  0  0  0  0  0  0999 V2000
    3.4580   -3.9899    0.0000 Cl  0  0  0  0  0  1  0  0  0  0  0  0
    4.6025   -3.3290    0.0000 C   0  0  0  0  0  4  0  0  0  0  0  0
    4.6025   -1.9990    0.0000 C   0  0  0  0  0  4  0  0  0  0  0  0
    5.7552   -1.3300    0.0000 C   0  0  0  0  0  4  0  0  0  0  0  0
    6.9078   -1.9990    0.0000 C   0  0  0  0  0  4  0  0  0  0  0  0
    6.9078   -3.3290    0.0000 C   0  0  0  0  0  4  0  0  0  0  0  0
    5.7552   -3.9899    0.0000 C   0  0  0  0  0  4  0  0  0  0  0  0
    8.0605   -3.9899    0.0000 Cl  0  0  0  0  0  1  0  0  0  0  0  0
    8.0605   -1.3300    0.0000 Cl  0  0  0  0  0  1  0  0  0  0  0  0
    3.4580   -1.3300    0.0000 O   0  0  0  0  0  2  0  0  0  0  0  0
    2.3053   -1.9990    0.0000 C   0  0  0  0  0  4  0  0  0  0  0  0
    1.1527   -1.3300    0.0000 C   0  0  0  0  0  4  0  0  0  0  0  0
    1.1527    0.0000    0.0000 O   0  0  0  0  0  2  0  0  0  0  0  0
    0.0000   -1.9990    0.0000 O   0  0  0  0  0  2  0  0  0  0  0  0
  1  2  1  0  0  0  0 
  2  3  2  0  0  0  0 
  2  7  1  0  0  0  0 
  3  4  1  0  0  0  0 
  3 10  1  0  0  0  0 
  4  5  2  0  0  0  0 
  5  6  1  0  0  0  0 
  5  9  1  0  0  0  0 
  6  7  2  0  0  0  0 
  6  8  1  0  0  0  0 
 10 11  1  0  0  0  0 
 11 12  1  0  0  0  0 
 12 13  2  0  0  0  0 
 12 14  1  0  0  0  0 
M  END
> <CDK Fingerprint>
BBgCAAIAAAACAABKABAABAAAAAAAAAAAkAAAAAAAAIAIAALhAAAAAAAAAAgAAAAIIAIgKACACABgQAAMAAAAAQACEAAAAAAAAAAABAAAAKAATAAAAAAAAIkBEAAIAEAAIABAAIAiJCEAAABSAAAACIAAAACAUABAAAAAAAAoBAA=

> <ActivityOutcome_CPDBAS_Rat>
inactive

$$$$

  CDK     0721101958

 12 11  0  0  0  0  0  0  0  0999 V2000
    1.3266   -1.9854    0.0000 P   0  0  0  0  0  5  0  0  0  0  0  0
    2.6577   -1.9854    0.0000 C   0  0  0  0  0  4  0  0  0  0  0  0
    3.3299   -3.1372    0.0000 C   0  0  0  0  0  4  0  0  0  0  0  0
    0.0000   -1.9854    0.0000 O   0  0  0  0  0  2  0  0  0  0  0  0
    4.4817   -2.4649    0.0000 Cl  0  0  0  0  0  1  0  0  0  0  0  0
    4.0022   -4.2890    0.0000 Cl  0  0  0  0  0  1  0  0  0  0  0  0
    2.1781   -3.8095    0.0000 Cl  0  0  0  0  0  1  0  0  0  0  0  0
    1.3266   -3.3120    0.0000 O   0  0  0  0  0  2  0  0  0  0  0  0
    1.3266   -0.6543    0.0000 O   0  0  0  0  0  2  0  0  0  0  0  0
    3.3120   -0.8336    0.0000 O   0  0  0  0  0  2  0  0  0  0  0  0
    2.4829    0.0000    0.0000 C   0  0  0  0  0  4  0  0  0  0  0  0
    0.1748   -3.9708    0.0000 C   0  0  0  0  0  4  0  0  0  0  0  0
  1  2  1  0  0  0  0 
  1  4  2  0  0  0  0 
  1  8  1  0  0  0  0 
  1  9  1  0  0  0  0 
  2  3  1  0  0  0  0 
  2 10  1  0  0  0  0 
  3  5  1  0  0  0  0 
  3  6  1  0  0  0  0 
  3  7  1  0  0  0  0 
  8 12  1  0  0  0  0 
  9 11  1  0  0  0  0 
M  END
> <CDK Fingerprint>
EAAAAAAAAAAAIAACAABAAAAAAAAAAAAIAAAAAAAAAAAAAAHgAAAAAAAAAAAABABAoAAAAAYAAAACIAAAIgAQAQABgAgAAoAAAAAAAAAAAAAAAAAAAAAAAAAEEAAAAAAAAAAAAAAAAAoCAAAAAAQABAAAAAAAAAAAAAAAAAAAgAA=

> <ActivityOutcome_CPDBAS_Rat>
inactive

$$$$

  CDK     0721101958

  6  5  0  0  0  0  0  0  0  0999 V2000
    2.6616    0.0000    0.0000 Cl  0  0  0  0  0  1  0  0  0  0  0  0
    1.9952   -1.1492    0.0000 C   0  0  0  0  0  4  0  0  0  0  0  0
    2.6616   -2.3025    0.0000 C   0  0  0  0  0  4  0  0  0  0  0  0
    3.9905   -2.3025    0.0000 Cl  0  0  0  0  0  1  0  0  0  0  0  0
    0.6664   -1.1492    0.0000 C   0  0  0  0  0  4  0  0  0  0  0  0
    0.0000   -2.3025    0.0000 Cl  0  0  0  0  0  1  0  0  0  0  0  0
  1  2  1  0  0  0  0 
  2  3  1  0  0  0  0 
  2  5  1  0  0  0  0 
  3  4  1  0  0  0  0 
  5  6  1  0  0  0  0 
M  END
> <CDK Fingerprint>
AMAAAAAAAAAAAAAAAAAgAAAAAgAAAAAAAABAAAABAAAABAAAgAACAAAAAAAAAAAAAAAAAAAAAAAAAAAAAAAAAAAAAAAAAAAAAAAAAAAAAAAAAAAAAAAAAAAAAAAAAA==

> <ActivityOutcome_CPDBAS_Rat>
active

> <TD50_Rat_mmol>
0.00916

$$$$

  CDK     0721101958

 10  9  0  0  0  0  0  0  0  0999 V2000
    0.0000   -3.4540    0.0000 O   0  0  0  0  0  2  0  0  0  0  0  0
    0.6645   -2.3047    0.0000 C   0  0  0  0  0  4  0  0  0  0  0  0
    1.9934   -2.3047    0.0000 C   0  0  0  0  0  4  0  0  0  0  0  0
    2.6578   -1.1493    0.0000 N   0  0  0  0  0  3  0  0  0  0  0  0
    1.9934    0.0000    0.0000 C   0  0  0  0  0  4  0  0  0  0  0  0
    0.6645    0.0000    0.0000 C   0  0  0  0  0  4  0  0  0  0  0  0
    0.0000   -1.1493    0.0000 O   0  0  0  0  0  2  0  0  0  0  0  0
    3.9928   -1.1493    0.0000 C   0  0  0  0  0  4  0  0  0  0  0  0
    4.6572   -2.3047    0.0000 C   0  0  0  0  0  4  0  0  0  0  0  0
    5.9861   -2.3047    0.0000 O   0  0  0  0  0  2  0  0  0  0  0  0
  1  2  1  0  0  0  0 
  2  3  1  0  0  0  0 
  3  4  1  0  0  0  0 
  4  5  1  0  0  0  0 
  4  8  1  0  0  0  0 
  5  6  1  0  0  0  0 
  6  7  1  0  0  0  0 
  8  9  1  0  0  0  0 
  9 10  1  0  0  0  0 
M  END
> <CDK Fingerprint>
EAAAAAAAAgAAAgAAAAAAAAAAAAAAAAAAAAAAAAAAAAAAYAAAAAAAAAAAAAAACCAAAAAAAAAAAAAAAIAAAAAAAAAAAAAAAAAAAAAAAACAAAAAQAAAAAAAABAAAAAAAAAAAAAAAAAAAABAAAAAAAAAAAAAAAABAAAAAAAAAgAA

> <ActivityOutcome_CPDBAS_Rat>
inactive

$$$$

  CDK     0721101958

 10  9  0  0  0  0  0  0  0  0999 V2000
    0.0000   -0.6638    0.0000 O   0  0  0  0  0  2  0  0  0  0  0  0
    1.1513    0.0000    0.0000 C   0  0  0  0  0  4  0  0  0  0  0  0
    2.3027   -0.6638    0.0000 C   0  0  0  0  0  4  0  0  0  0  0  0
    3.4540    0.0000    0.0000 O   0  0  0  0  0  2  0  0  0  0  0  0
    4.6053   -0.6638    0.0000 C   0  0  0  0  0  4  0  0  0  0  0  0
    5.7670    0.0000    0.0000 C   0  0  0  0  0  4  0  0  0  0  0  0
    6.9184   -0.6638    0.0000 O   0  0  0  0  0  2  0  0  0  0  0  0
    8.0697    0.0000    0.0000 C   0  0  0  0  0  4  0  0  0  0  0  0
    9.2210   -0.6638    0.0000 C   0  0  0  0  0  4  0  0  0  0  0  0
   10.3724    0.0000    0.0000 O   0  0  0  0  0  2  0  0  0  0  0  0
  1  2  1  0  0  0  0 
  2  3  1  0  0  0  0 
  3  4  1  0  0  0  0 
  4  5  1  0  0  0  0 
  5  6  1  0  0  0  0 
  6  7  1  0  0  0  0 
  7  8  1  0  0  0  0 
  8  9  1  0  0  0  0 
  9 10  1  0  0  0  0 
M  END
> <CDK Fingerprint>
AgAAAAAAAAAAAAAAEIAAAAEAAAAAAAAAYACAAAAAIAAAAAAACCACAAAAAAAAIQAAAAAAAAAAAAAAAAAAAAAAAAAAAAAAAAAAAAAgAAAAABAAAABAAAAAAAAAAAAAAAAAAAAAAAAAAAABAAAAAAAAAAAAAAAA

> <ActivityOutcome_CPDBAS_Rat>
inactive

$$$$

  CDK     0721101958

 20 21  0  0  0  0  0  0  0  0999 V2000
   10.9905   -3.0631    0.0000 N   0  0  0  0  0  4  0  0  0  0  0  0
   10.7087   -4.3619    0.0000 O   0  0  0  0  0  1  0  0  0  0  0  0
   12.2525   -2.6465    0.0000 O   0  0  0  0  0  2  0  0  0  0  0  0
    9.9980   -2.1687    0.0000 C   0  0  0  0  0  4  0  0  0  0  0  0
    8.6993   -2.4505    0.0000 O   0  0  0  0  0  2  0  0  0  0  0  0
    8.0376   -1.2988    0.0000 C   0  0  0  0  0  4  0  0  0  0  0  0
    8.9198   -0.3063    0.0000 C   0  0  0  0  0  4  0  0  0  0  0  0
   10.1328   -0.8454    0.0000 C   0  0  0  0  0  4  0  0  0  0  0  0
    6.7144   -1.1517    0.0000 C   0  0  0  0  0  4  0  0  0  0  0  0
    5.8199   -2.1442    0.0000 N   0  0  0  0  0  3  0  0  0  0  0  0
    4.6069   -1.6051    0.0000 C   0  0  0  0  0  4  0  0  0  0  0  0
    4.7417   -0.2818    0.0000 S   0  0  0  0  0  2  0  0  0  0  0  0
    6.0405    0.0000    0.0000 C   0  0  0  0  0  4  0  0  0  0  0  0
    3.4552   -2.2667    0.0000 N   0  0  0  0  0  3  0  0  0  0  0  0
    2.3035   -1.6051    0.0000 C   0  0  0  0  0  4  0  0  0  0  0  0
    2.3035   -0.2696    0.0000 O   0  0  0  0  0  2  0  0  0  0  0  0
    1.1517   -2.2667    0.0000 C   0  0  0  0  0  4  0  0  0  0  0  0
    1.8134   -3.4184    0.0000 F   0  0  0  0  0  1  0  0  0  0  0  0
    0.0000   -2.9283    0.0000 F   0  0  0  0  0  1  0  0  0  0  0  0
    0.4901   -1.1150    0.0000 F   0  0  0  0  0  1  0  0  0  0  0  0
  1  2  1  0  0  0  0 
  1  3  2  0  0  0  0 
  1  4  1  0  0  0  0 
  4  5  1  0  0  0  0 
  4  8  2  0  0  0  0 
  5  6  1  0  0  0  0 
  6  7  2  0  0  0  0 
  6  9  1  0  0  0  0 
  7  8  1  0  0  0  0 
  9 10  1  0  0  0  0 
  9 13  2  0  0  0  0 
 10 11  2  0  0  0  0 
 11 12  1  0  0  0  0 
 11 14  1  0  0  0  0 
 12 13  1  0  0  0  0 
 14 15  1  0  0  0  0 
 15 16  2  0  0  0  0 
 15 17  1  0  0  0  0 
 17 18  1  0  0  0  0 
 17 19  1  0  0  0  0 
 17 20  1  0  0  0  0 
M  CHG  1   1   1
M  CHG  1   2  -1
M  END
> <CDK Fingerprint>
Jgb4wgsnYgBSCCWRsAABSqimgJEQwRABgEEELEImsQCRZIAmAARiGJUAEmEAAKQARwACQAQGwYKAAIAfoYCB1AIKVASEEgIQAIDALIzAEDgCRZALBAjUoACgIIiIhHAhVII1IKUA+CByAGCwqgMIANBIQtEAEAlIGAAWAgCH

> <ActivityOutcome_CPDBAS_Rat>
active

> <TD50_Rat_mmol>
0.0221

$$$$

  CDK     0721101958

 23 23  0  0  0  0  0  0  0  0999 V2000
    5.7594    0.0000    0.0000 O   0  0  0  0  0  2  0  0  0  0  0  0
    5.7594   -1.3362    0.0000 N   0  0  0  0  0  4  0  0  0  0  0  0
    4.6075   -1.9997    0.0000 C   0  0  0  0  0  4  0  0  0  0  0  0
    4.6075   -3.3266    0.0000 C   0  0  0  0  0  4  0  0  0  0  0  0
    3.4557   -3.9901    0.0000 C   0  0  0  0  0  4  0  0  0  0  0  0
    2.3038   -3.3266    0.0000 C   0  0  0  0  0  4  0  0  0  0  0  0
    2.3038   -1.9997    0.0000 C   0  0  0  0  0  4  0  0  0  0  0  0
    3.4557   -1.3362    0.0000 C   0  0  0  0  0  4  0  0  0  0  0  0
    1.1519   -1.3362    0.0000 C   0  0  0  0  0  4  0  0  0  0  0  0
    1.8154   -0.1843    0.0000 F   0  0  0  0  0  1  0  0  0  0  0  0
    0.4884   -2.4881    0.0000 F   0  0  0  0  0  1  0  0  0  0  0  0
    0.0000   -0.6727    0.0000 F   0  0  0  0  0  1  0  0  0  0  0  0
    3.4557   -5.3263    0.0000 N   0  0  0  0  0  4  0  0  0  0  0  0
    4.6075   -5.9898    0.0000 O   0  0  0  0  0  2  0  0  0  0  0  0
    2.3038   -5.9898    0.0000 O   0  0  0  0  0  1  0  0  0  0  0  0
    5.7594   -3.9901    0.0000 N   0  0  0  0  0  3  0  0  0  0  0  0
    6.9113   -3.3266    0.0000 C   0  0  0  0  0  4  0  0  0  0  0  0
    8.0632   -3.9901    0.0000 C   0  0  0  0  0  4  0  0  0  0  0  0
    9.2151   -3.3266    0.0000 C   0  0  0  0  0  4  0  0  0  0  0  0
    5.7594   -5.3263    0.0000 C   0  0  0  0  0  4  0  0  0  0  0  0
    6.9113   -5.9898    0.0000 C   0  0  0  0  0  4  0  0  0  0  0  0
    8.0632   -5.3263    0.0000 C   0  0  0  0  0  4  0  0  0  0  0  0
    6.9113   -1.9997    0.0000 O   0  0  0  0  0  1  0  0  0  0  0  0
  1  2  2  0  0  0  0 
  2  3  1  0  0  0  0 
  2 23  1  0  0  0  0 
  3  4  2  0  0  0  0 
  3  8  1  0  0  0  0 
  4  5  1  0  0  0  0 
  4 16  1  0  0  0  0 
  5  6  2  0  0  0  0 
  5 13  1  0  0  0  0 
  6  7  1  0  0  0  0 
  7  8  2  0  0  0  0 
  7  9  1  0  0  0  0 
  9 10  1  0  0  0  0 
  9 11  1  0  0  0  0 
  9 12  1  0  0  0  0 
 13 14  2  0  0  0  0 
 13 15  1  0  0  0  0 
 16 17  1  0  0  0  0 
 16 20  1  0  0  0  0 
 17 18  1  0  0  0  0 
 18 19  1  0  0  0  0 
 20 21  1  0  0  0  0 
 21 22  1  0  0  0  0 
M  CHG  1   2   1
M  CHG  1  13   1
M  CHG  1  15  -1
M  CHG  1  23  -1
M  END
> <CDK Fingerprint>
EAEQAgEAKgCADAABIAUACAAAgAAYQQFAAAIABEAGMAAAYAEECAgggAAAIAAggKAAFAACAIIAQgQECMAEAABABABAEABQAIAAAAAYiICRAAAAADAQIAQQgACAABmAACAABABAIAAAAEAoA0AAAAAAAAAAgAAGEACAQAAAAjgI

> <ActivityOutcome_CPDBAS_Rat>
inactive

$$$$

  CDK     0721101958

 10 10  0  0  0  0  0  0  0  0999 V2000
    3.4260    0.0000    0.0000 C   0  0  0  0  0  4  0  0  0  0  0  0
    3.2875   -1.3252    0.0000 C   0  0  0  0  0  4  0  0  0  0  0  0
    3.4260   -2.6457    0.0000 C   0  0  0  0  0  4  0  0  0  0  0  0
    4.5803   -3.3106    0.0000 O   0  0  0  0  0  2  0  0  0  0  0  0
    2.2117   -3.1859    0.0000 N   0  0  0  0  0  3  0  0  0  0  0  0
    1.9346   -4.4880    0.0000 C   0  0  0  0  0  4  0  0  0  0  0  0
    1.3205   -2.1978    0.0000 C   0  0  0  0  0  4  0  0  0  0  0  0
    0.0000   -2.3363    0.0000 O   0  0  0  0  0  2  0  0  0  0  0  0
    1.9854   -1.0481    0.0000 O   0  0  0  0  0  2  0  0  0  0  0  0
    4.6173   -1.3252    0.0000 C   0  0  0  0  0  4  0  0  0  0  0  0
  1  2  1  0  0  0  0 
  2  3  1  0  0  0  0 
  2  9  1  0  0  0  0 
  2 10  1  0  0  0  0 
  3  4  2  0  0  0  0 
  3  5  1  0  0  0  0 
  5  6  1  0  0  0  0 
  5  7  1  0  0  0  0 
  7  8  2  0  0  0  0 
  7  9  1  0  0  0  0 
M  END
> <CDK Fingerprint>
CAOAEAAFAgAAAgABAAABAAAAAAAAAIAAAACAAAAAAAIAYAAAAAAAAAAAAAABSCACAAQCIAAAAAAAAMAAAACAAAAACAAAAAAAAAAAAACBAAAAQCAIQABAABEAAAAAAAAAQAAAAAABAABAAAAAAAGAAAAAAFAAAAAAAAAAAgAA

> <ActivityOutcome_CPDBAS_Rat>
inactive

$$$$

  CDK     0721101958

 26 27  0  0  0  0  0  0  0  0999 V2000
    3.4494   -3.3353    0.0000 C   0  0  0  0  0  4  0  0  0  0  0  0
    4.6034   -3.9947    0.0000 C   0  0  0  0  0  4  0  0  0  0  0  0
    2.3081   -3.9947    0.0000 C   0  0  0  0  0  4  0  0  0  0  0  0
    3.4494   -2.0037    0.0000 C   0  0  0  0  0  4  0  0  0  0  0  0
    4.6034   -5.3263    0.0000 C   0  0  0  0  0  4  0  0  0  0  0  0
    5.7575   -3.3353    0.0000 C   0  0  0  0  0  4  0  0  0  0  0  0
    1.1540   -3.3353    0.0000 C   0  0  0  0  0  4  0  0  0  0  0  0
    2.3081   -5.3263    0.0000 C   0  0  0  0  0  4  0  0  0  0  0  0
    2.3081   -1.3316    0.0000 C   0  0  0  0  0  4  0  0  0  0  0  0
    4.6034   -1.3316    0.0000 O   0  0  0  0  0  2  0  0  0  0  0  0
    5.7575   -5.9984    0.0000 C   0  0  0  0  0  4  0  0  0  0  0  0
    3.4494   -5.9984    0.0000 C   0  0  0  0  0  4  0  0  0  0  0  0
    6.9242   -3.9947    0.0000 C   0  0  0  0  0  4  0  0  0  0  0  0
    1.1540   -2.0037    0.0000 C   0  0  0  0  0  4  0  0  0  0  0  0
    0.0000   -3.9947    0.0000 O   0  0  0  0  0  2  0  0  0  0  0  0
    2.3081    0.0000    0.0000 C   0  0  0  0  0  4  0  0  0  0  0  0
    5.7575   -7.3173    0.0000 C   0  0  0  0  0  4  0  0  0  0  0  0
    3.4494   -7.3173    0.0000 C   0  0  0  0  0  4  0  0  0  0  0  0
    8.0782   -3.3353    0.0000 C   0  0  0  0  0  4  0  0  0  0  0  0
    0.0000   -1.3316    0.0000 C   0  0  0  0  0  4  0  0  0  0  0  0
    4.6034   -7.9894    0.0000 C   0  0  0  0  0  4  0  0  0  0  0  0
    9.2196   -3.9947    0.0000 C   0  0  0  0  0  4  0  0  0  0  0  0
   10.3736   -3.3353    0.0000 C   0  0  0  0  0  4  0  0  0  0  0  0
   11.5276   -3.9947    0.0000 C   0  0  0  0  0  4  0  0  0  0  0  0
   12.6817   -3.3353    0.0000 O   0  0  0  0  0  2  0  0  0  0  0  0
   11.5276   -5.3263    0.0000 O   0  0  0  0  0  2  0  0  0  0  0  0
  1  2  1  0  0  0  0 
  1  3  2  0  0  0  0 
  1  4  1  0  0  0  0 
  2  5  1  0  0  0  0 
  2  6  1  0  0  0  0 
  3  7  1  0  0  0  0 
  3  8  1  0  0  0  0 
  4  9  1  0  0  0  0 
  4 10  2  0  0  0  0 
  5 11  1  0  0  0  0 
  5 12  2  0  0  0  0 
  6 13  1  0  0  0  0 
  7 14  1  0  0  0  0 
  7 15  2  0  0  0  0 
  9 16  1  0  0  0  0 
  9 14  2  0  0  0  0 
 11 17  2  0  0  0  0 
 12 18  1  0  0  0  0 
 13 19  1  0  0  0  0 
 14 20  1  0  0  0  0 
 17 21  1  0  0  0  0 
 18 21  2  0  0  0  0 
 19 22  1  0  0  0  0 
 22 23  1  0  0  0  0 
 23 24  1  0  0  0  0 
 24 25  1  0  0  0  0 
 24 26  2  0  0  0  0 
M  END
> <CDK Fingerprint>
QAIwAAAAAAAQABIRAAQAAAgCBoQEQABAAAAEYAEAQAlRiuAAAAAIGAABACAQAxAgICAAQAAQAEAAACBEQASAABQIARRACAAOAQQAYgABAAAAAAAAAYAACIAQAAAAiAAhAEAAQCBAAAAAAANEFAQDEIAcAITyGAYAAABANCAAIA==

> <ActivityOutcome_CPDBAS_Rat>
inactive

$$$$

  CDK     0721101958

 10 10  0  0  0  0  0  0  0  0999 V2000
    4.6084   -2.6590    0.0000 C   0  0  0  0  0  4  0  0  0  0  0  0
    3.4563   -1.9954    0.0000 C   0  0  0  0  0  4  0  0  0  0  0  0
    2.3042   -2.6590    0.0000 C   0  0  0  0  0  4  0  0  0  0  0  0
    1.1521   -1.9954    0.0000 C   0  0  0  0  0  4  0  0  0  0  0  0
    1.1521   -0.6636    0.0000 C   0  0  0  0  0  4  0  0  0  0  0  0
    2.3042    0.0000    0.0000 C   0  0  0  0  0  4  0  0  0  0  0  0
    3.4563   -0.6636    0.0000 C   0  0  0  0  0  4  0  0  0  0  0  0
    4.6084    0.0000    0.0000 C   0  0  0  0  0  4  0  0  0  0  0  0
    0.0000    0.0000    0.0000 N   0  0  0  0  0  3  0  0  0  0  0  0
    0.0000   -2.6590    0.0000 C   0  0  0  0  0  4  0  0  0  0  0  0
  1  2  1  0  0  0  0 
  2  3  2  0  0  0  0 
  2  7  1  0  0  0  0 
  3  4  1  0  0  0  0 
  4  5  2  0  0  0  0 
  4 10  1  0  0  0  0 
  5  6  1  0  0  0  0 
  5  9  1  0  0  0  0 
  6  7  2  0  0  0  0 
  7  8  1  0  0  0  0 
M  END
> <CDK Fingerprint>
IgAAAAAAAAEAAAAAAAAAQQAAAAAABAACAAAAYAAAAAAAAAAAAAAAAHAAAAAAAAAAQAAAAAAAAAAAFAAAAAAAAAAAAAAAAAAAAAAAAAAAgAAAgAAAAAiAACAAAABAIAAAAAAAAkAAAAAAAAAAgAACAAAAAAQAAhAA

> <ActivityOutcome_CPDBAS_Rat>
active

> <TD50_Rat_mmol>
0.249

$$$$

  CDK     0721101958

  9  9  0  0  0  0  0  0  0  0999 V2000
    0.0000   -2.6589    0.0000 C   0  0  0  0  0  4  0  0  0  0  0  0
    1.1520   -1.9953    0.0000 C   0  0  0  0  0  4  0  0  0  0  0  0
    1.1520   -0.6636    0.0000 C   0  0  0  0  0  4  0  0  0  0  0  0
    2.3041    0.0000    0.0000 C   0  0  0  0  0  4  0  0  0  0  0  0
    3.4561   -0.6636    0.0000 C   0  0  0  0  0  4  0  0  0  0  0  0
    3.4561   -1.9953    0.0000 C   0  0  0  0  0  4  0  0  0  0  0  0
    2.3041   -2.6589    0.0000 C   0  0  0  0  0  4  0  0  0  0  0  0
    4.6082   -2.6589    0.0000 C   0  0  0  0  0  4  0  0  0  0  0  0
    0.0000    0.0000    0.0000 C   0  0  0  0  0  4  0  0  0  0  0  0
  1  2  1  0  0  0  0 
  2  3  2  0  0  0  0 
  2  7  1  0  0  0  0 
  3  4  1  0  0  0  0 
  3  9  1  0  0  0  0 
  4  5  2  0  0  0  0 
  5  6  1  0  0  0  0 
  6  7  2  0  0  0  0 
  6  8  1  0  0  0  0 
M  END
> <CDK Fingerprint>
QAAAAAAAAAAAAAAAADAAAAAAAAAAQAAAAAAAAAAAFAAAAAAAAAAAAAAAAAAAAAAAAAAAgAAAgAAAAAiAACAAAABAIAAAAAAAAkAAAAAAAAAAgAAAAAAAAAQAAAAA

> <ActivityOutcome_CPDBAS_Rat>
active

> <TD50_Rat_mmol>
36.2

$$$$

  CDK     0721101958

  8  7  0  0  0  0  0  0  0  0999 V2000
    3.3237   -1.9950    0.0000 O   0  0  0  0  0  2  0  0  0  0  0  0
    1.9950   -1.9950    0.0000 P   0  0  0  0  0  5  0  0  0  0  0  0
    1.9950   -3.3237    0.0000 O   0  0  0  0  0  2  0  0  0  0  0  0
    3.1481   -3.9900    0.0000 C   0  0  0  0  0  4  0  0  0  0  0  0
    0.6663   -1.9950    0.0000 O   0  0  0  0  0  2  0  0  0  0  0  0
    0.0000   -3.1481    0.0000 C   0  0  0  0  0  4  0  0  0  0  0  0
    1.9950   -0.6663    0.0000 O   0  0  0  0  0  2  0  0  0  0  0  0
    3.1481    0.0000    0.0000 C   0  0  0  0  0  4  0  0  0  0  0  0
  1  2  2  0  0  0  0 
  2  3  1  0  0  0  0 
  2  5  1  0  0  0  0 
  2  7  1  0  0  0  0 
  3  4  1  0  0  0  0 
  5  6  1  0  0  0  0 
  7  8  1  0  0  0  0 
M  END
> <CDK Fingerprint>
AgAAAAAAAAAAAAAACAAAAAAAAAAAAAABYAAAAAAAAAAAAAQAAAAAAAAAAAAAAAAAAAAAAAAAAQAAAAAAAAAAAAAAAAAAAAAAAAAAAAAABAAAAAAAAAAAAAAAAAAIAgAAAAAEAAAAAAAAAAAAAAAAAAAAAIAA

> <ActivityOutcome_CPDBAS_Rat>
inactive

$$$$

  CDK     0721101958

  7  6  0  0  0  0  0  0  0  0999 V2000
    0.0000   -2.3052    0.0000 S   0  0  0  0  0  2  0  0  0  0  0  0
    1.3306   -2.3052    0.0000 C   0  0  0  0  0  4  0  0  0  0  0  0
    1.9941   -1.1508    0.0000 N   0  0  0  0  0  3  0  0  0  0  0  0
    3.3247   -1.1508    0.0000 C   0  0  0  0  0  4  0  0  0  0  0  0
    1.3306    0.0000    0.0000 C   0  0  0  0  0  4  0  0  0  0  0  0
    1.9941   -3.4560    0.0000 N   0  0  0  0  0  3  0  0  0  0  0  0
    3.3247   -3.4560    0.0000 C   0  0  0  0  0  4  0  0  0  0  0  0
  1  2  2  0  0  0  0 
  2  3  1  0  0  0  0 
  2  6  1  0  0  0  0 
  3  4  1  0  0  0  0 
  3  5  1  0  0  0  0 
  6  7  1  0  0  0  0 
M  END
> <CDK Fingerprint>
EABAAAAAAAAAAAAAAAAAAAAAAAAAAAAAAAFgAAAAAAAAAAAACAAAAAAAAAAAAAAAAAAAgAAAAAAAAAAAAAAAAAAAAAAAAAAAAAAAAAAAAAAQAAAAAAAAAAAAAAAAAAAAAAAAAAAAAAAAQAAAAAAAAAABAAACAAA=

> <ActivityOutcome_CPDBAS_Rat>
active

> <TD50_Rat_mmol>
0.218

$$$$

  CDK     0721101958

 15 15  0  0  0  0  0  0  0  0999 V2000
    3.4662   -0.6724    0.0000 N   0  0  0  0  0  4  0  0  0  0  0  0
    5.7747   -4.6655    0.0000 N   0  0  0  0  0  4  0  0  0  0  0  0
    1.1438   -4.6586    0.0000 N   0  0  0  0  0  4  0  0  0  0  0  0
    4.6100   -3.9861    0.0000 C   0  0  0  0  0  4  0  0  0  0  0  0
    3.4662   -1.9965    0.0000 C   0  0  0  0  0  4  0  0  0  0  0  0
    2.3085   -3.9861    0.0000 C   0  0  0  0  0  4  0  0  0  0  0  0
    2.3016   -2.6620    0.0000 C   0  0  0  0  0  4  0  0  0  0  0  0
    4.6100   -2.6620    0.0000 C   0  0  0  0  0  4  0  0  0  0  0  0
    3.4662   -4.6516    0.0000 C   0  0  0  0  0  4  0  0  0  0  0  0
    5.7678   -5.9965    0.0000 O   0  0  0  0  0  1  0  0  0  0  0  0
    4.6378   -0.0277    0.0000 O   0  0  0  0  0  1  0  0  0  0  0  0
    0.0000   -4.0000    0.0000 O   0  0  0  0  0  1  0  0  0  0  0  0
    6.9324   -4.0069    0.0000 O   0  0  0  0  0  2  0  0  0  0  0  0
    2.3501    0.0000    0.0000 O   0  0  0  0  0  2  0  0  0  0  0  0
    1.1438   -5.9965    0.0000 O   0  0  0  0  0  2  0  0  0  0  0  0
  1  5  1  0  0  0  0 
  1 11  1  0  0  0  0 
  1 14  2  0  0  0  0 
  2  4  1  0  0  0  0 
  2 10  1  0  0  0  0 
  2 13  2  0  0  0  0 
  3  6  1  0  0  0  0 
  3 12  1  0  0  0  0 
  3 15  2  0  0  0  0 
  4  8  2  0  0  0  0 
  4  9  1  0  0  0  0 
  5  7  2  0  0  0  0 
  5  8  1  0  0  0  0 
  6  7  1  0  0  0  0 
  6  9  2  0  0  0  0 
M  CHG  1   1   1
M  CHG  1   2   1
M  CHG  1   3   1
M  CHG  1  10  -1
M  CHG  1  11  -1
M  CHG  1  12  -1
M  END
> <CDK Fingerprint>
EAIAACAAAAgAAAAEAAgAAAAAGEAAQAAAAAQABgAAAGABBAAAAAAAAAAAAAAAAAAAAgAAAEAEAAAAAAAAAAAAAAAAQACAAAAAAAiAAQAAAAAAACAAEAAAAAAQAAAgAAQAACAAAABAIAIAAAAAAAAAAIAABBAAAAAAAAIQAA==

> <ActivityOutcome_CPDBAS_Rat>
inactive

$$$$

  CDK     0721101958

 15 14  0  0  0  0  0  0  0  0999 V2000
    5.7539    0.0000    0.0000 O   0  0  0  0  0  2  0  0  0  0  0  0
    5.7539   -1.3257    0.0000 N   0  0  0  0  0  4  0  0  0  0  0  0
    4.6031   -1.9885    0.0000 O   0  0  0  0  0  2  0  0  0  0  0  0
    4.6031   -3.3142    0.0000 C   0  0  0  0  0  4  0  0  0  0  0  0
    5.7539   -3.9863    0.0000 C   0  0  0  0  0  4  0  0  0  0  0  0
    6.9047   -3.3142    0.0000 O   0  0  0  0  0  2  0  0  0  0  0  0
    8.0554   -3.9863    0.0000 N   0  0  0  0  0  4  0  0  0  0  0  0
    8.0554   -5.3120    0.0000 O   0  0  0  0  0  2  0  0  0  0  0  0
    9.2062   -3.3142    0.0000 O   0  0  0  0  0  1  0  0  0  0  0  0
    3.4523   -3.9863    0.0000 C   0  0  0  0  0  4  0  0  0  0  0  0
    2.3016   -3.3142    0.0000 O   0  0  0  0  0  2  0  0  0  0  0  0
    1.1508   -3.9863    0.0000 N   0  0  0  0  0  4  0  0  0  0  0  0
    1.1508   -5.3120    0.0000 O   0  0  0  0  0  2  0  0  0  0  0  0
    0.0000   -3.3142    0.0000 O   0  0  0  0  0  1  0  0  0  0  0  0
    6.9047   -1.9885    0.0000 O   0  0  0  0  0  1  0  0  0  0  0  0
  1  2  2  0  0  0  0 
  2  3  1  0  0  0  0 
  2 15  1  0  0  0  0 
  3  4  1  0  0  0  0 
  4  5  1  0  0  0  0 
  4 10  1  0  0  0  0 
  5  6  1  0  0  0  0 
  6  7  1  0  0  0  0 
  7  8  2  0  0  0  0 
  7  9  1  0  0  0  0 
 10 11  1  0  0  0  0 
 11 12  1  0  0  0  0 
 12 13  2  0  0  0  0 
 12 14  1  0  0  0  0 
M  CHG  1   2   1
M  CHG  1   7   1
M  CHG  1   9  -1
M  CHG  1  12   1
M  CHG  1  14  -1
M  CHG  1  15  -1
M  END
> <CDK Fingerprint>
UAIAAAEAAAAAAAoAAACAAAAAAAAAAQIAAAAAAAAABAAQAGQAAAAAAAAAgAAAARggAAAACAAAAAAAAABAAIAAAAAAAAAAAAAAAACAAAAgAAAAAAAAAAAAAAAQAAGgKAAAIAQAAAAAAAAJAAAAAAAAACAAAAAAIABEAAAAAhAAAA==

> <ActivityOutcome_CPDBAS_Rat>
active

> <TD50_Rat_mmol>
0.806

$$$$

  CDK     0721101958

 14 13  0  0  0  0  0  0  0  0999 V2000
    3.9465   -2.8373    0.0000 O   0  0  0  0  0  2  0  0  0  0  0  0
    4.6085   -3.9895    0.0000 P   0  0  0  0  0  5  0  0  0  0  0  0
    5.7607   -3.3274    0.0000 O   0  0  0  0  0  2  0  0  0  0  0  0
    5.7607   -1.9947    0.0000 C   0  0  0  0  0  4  0  0  0  0  0  0
    4.6085   -1.3327    0.0000 C   0  0  0  0  0  4  0  0  0  0  0  0
    4.6085    0.0000    0.0000 Cl  0  0  0  0  0  1  0  0  0  0  0  0
    5.2706   -5.1416    0.0000 O   0  0  0  0  0  2  0  0  0  0  0  0
    6.6033   -5.1416    0.0000 C   0  0  0  0  0  4  0  0  0  0  0  0
    7.2653   -3.9895    0.0000 C   0  0  0  0  0  4  0  0  0  0  0  0
    8.5980   -3.9895    0.0000 Cl  0  0  0  0  0  1  0  0  0  0  0  0
    3.4564   -4.6515    0.0000 O   0  0  0  0  0  2  0  0  0  0  0  0
    2.3043   -3.9895    0.0000 C   0  0  0  0  0  4  0  0  0  0  0  0
    1.1521   -4.6515    0.0000 C   0  0  0  0  0  4  0  0  0  0  0  0
    0.0000   -3.9895    0.0000 Cl  0  0  0  0  0  1  0  0  0  0  0  0
  1  2  2  0  0  0  0 
  2  3  1  0  0  0  0 
  2  7  1  0  0  0  0 
  2 11  1  0  0  0  0 
  3  4  1  0  0  0  0 
  4  5  1  0  0  0  0 
  5  6  1  0  0  0  0 
  7  8  1  0  0  0  0 
  8  9  1  0  0  0  0 
  9 10  1  0  0  0  0 
 11 12  1  0  0  0  0 
 12 13  1  0  0  0  0 
 13 14  1  0  0  0  0 
M  END
> <CDK Fingerprint>
AgAAAAAAAAAAAAAACAAAAAAAAAAAAAgB4ACAAAAAAAAAAAQAACAAAAQCAAAAAAAAAAAAAgEAAQAIBAAAAABAAACAAAAAACAAAAAAAAAABBAAAAAAAABAQAAAAAQIAgAAAAAEAAAAAAAAAAAAAAAAAAAAAIAA

> <ActivityOutcome_CPDBAS_Rat>
active

> <TD50_Rat_mmol>
0.304

$$$$

  CDK     0721101958

 20 19  0  0  0  0  0  0  0  0999 V2000
    5.3236   -3.9907    0.0000 O   0  0  0  0  0  2  0  0  0  0  0  0
    3.9907   -3.9907    0.0000 P   0  0  0  0  0  5  0  0  0  0  0  0
    3.9907   -5.3236    0.0000 O   0  0  0  0  0  2  0  0  0  0  0  0
    5.1400   -5.9861    0.0000 C   0  0  0  0  0  4  0  0  0  0  0  0
    5.1400   -7.3190    0.0000 C   0  0  0  0  0  4  0  0  0  0  0  0
    6.2974   -7.9814    0.0000 C   0  0  0  0  0  4  0  0  0  0  0  0
    7.4467   -7.3190    0.0000 Br  0  0  0  0  0  1  0  0  0  0  0  0
    3.9907   -7.9814    0.0000 Br  0  0  0  0  0  1  0  0  0  0  0  0
    2.6578   -3.9907    0.0000 O   0  0  0  0  0  2  0  0  0  0  0  0
    1.9954   -5.1400    0.0000 C   0  0  0  0  0  4  0  0  0  0  0  0
    0.6625   -5.1400    0.0000 C   0  0  0  0  0  4  0  0  0  0  0  0
    0.0000   -6.2974    0.0000 C   0  0  0  0  0  4  0  0  0  0  0  0
    0.6625   -7.4467    0.0000 Br  0  0  0  0  0  1  0  0  0  0  0  0
    0.0000   -3.9907    0.0000 Br  0  0  0  0  0  1  0  0  0  0  0  0
    3.9907   -2.6578    0.0000 O   0  0  0  0  0  2  0  0  0  0  0  0
    5.1400   -1.9954    0.0000 C   0  0  0  0  0  4  0  0  0  0  0  0
    5.1400   -0.6625    0.0000 C   0  0  0  0  0  4  0  0  0  0  0  0
    3.9907    0.0000    0.0000 C   0  0  0  0  0  4  0  0  0  0  0  0
    2.8414   -0.6625    0.0000 Br  0  0  0  0  0  1  0  0  0  0  0  0
    6.2974    0.0000    0.0000 Br  0  0  0  0  0  1  0  0  0  0  0  0
  1  2  2  0  0  0  0 
  2  3  1  0  0  0  0 
  2  9  1  0  0  0  0 
  2 15  1  0  0  0  0 
  3  4  1  0  0  0  0 
  4  5  1  0  0  0  0 
  5  6  1  0  0  0  0 
  5  8  1  0  0  0  0 
  6  7  1  0  0  0  0 
  9 10  1  0  0  0  0 
 10 11  1  0  0  0  0 
 11 12  1  0  0  0  0 
 11 14  1  0  0  0  0 
 12 13  1  0  0  0  0 
 15 16  1  0  0  0  0 
 16 17  1  0  0  0  0 
 17 18  1  0  0  0  0 
 17 20  1  0  0  0  0 
 18 19  1  0  0  0  0 
M  END
> <CDK Fingerprint>
AKIAAAoAAAAAAAAAAACgAAoAAACAAAACgAAIAeAgAABAAAAAAgAEABAgAgAAAAAAAAAAAABEAAKAAAEAAIAAAAAEQAAAQQAAAAAAAAAAAAAAQAQQAAAAAAAAAFAAAAAUCAIAAAIABAAAAAAAAAAAAAAAAAAAAACAAA==

> <ActivityOutcome_CPDBAS_Rat>
active

> <TD50_Rat_mmol>
0.00549

$$$$

  CDK     0721101958

 20 19  0  0  0  0  0  0  0  0999 V2000
    5.3180   -3.9865    0.0000 O   0  0  0  0  0  2  0  0  0  0  0  0
    3.9865   -3.9865    0.0000 P   0  0  0  0  0  5  0  0  0  0  0  0
    3.9865   -5.3180    0.0000 O   0  0  0  0  0  2  0  0  0  0  0  0
    5.1347   -5.9798    0.0000 C   0  0  0  0  0  4  0  0  0  0  0  0
    6.2908   -5.3180    0.0000 C   0  0  0  0  0  4  0  0  0  0  0  0
    6.2908   -3.9865    0.0000 Cl  0  0  0  0  0  1  0  0  0  0  0  0
    5.1347   -7.3113    0.0000 C   0  0  0  0  0  4  0  0  0  0  0  0
    6.2908   -7.9731    0.0000 Cl  0  0  0  0  0  1  0  0  0  0  0  0
    2.6550   -3.9865    0.0000 O   0  0  0  0  0  2  0  0  0  0  0  0
    1.9933   -5.1347    0.0000 C   0  0  0  0  0  4  0  0  0  0  0  0
    2.6550   -6.2908    0.0000 C   0  0  0  0  0  4  0  0  0  0  0  0
    3.9865   -6.2908    0.0000 Cl  0  0  0  0  0  1  0  0  0  0  0  0
    0.6618   -5.1347    0.0000 C   0  0  0  0  0  4  0  0  0  0  0  0
    0.0000   -6.2908    0.0000 Cl  0  0  0  0  0  1  0  0  0  0  0  0
    3.9865   -2.6550    0.0000 O   0  0  0  0  0  2  0  0  0  0  0  0
    5.1347   -1.9933    0.0000 C   0  0  0  0  0  4  0  0  0  0  0  0
    5.1347   -0.6618    0.0000 C   0  0  0  0  0  4  0  0  0  0  0  0
    3.9865    0.0000    0.0000 Cl  0  0  0  0  0  1  0  0  0  0  0  0
    6.2908   -2.6550    0.0000 C   0  0  0  0  0  4  0  0  0  0  0  0
    7.4389   -1.9933    0.0000 Cl  0  0  0  0  0  1  0  0  0  0  0  0
  1  2  2  0  0  0  0 
  2  3  1  0  0  0  0 
  2  9  1  0  0  0  0 
  2 15  1  0  0  0  0 
  3  4  1  0  0  0  0 
  4  5  1  0  0  0  0 
  4  7  1  0  0  0  0 
  5  6  1  0  0  0  0 
  7  8  1  0  0  0  0 
  9 10  1  0  0  0  0 
 10 11  1  0  0  0  0 
 10 13  1  0  0  0  0 
 11 12  1  0  0  0  0 
 13 14  1  0  0  0  0 
 15 16  1  0  0  0  0 
 16 17  1  0  0  0  0 
 16 19  1  0  0  0  0 
 17 18  1  0  0  0  0 
 19 20  1  0  0  0  0 
M  END
> <CDK Fingerprint>
AgAAAAAAAAAAAAAACAAAAAAAAAAAAAgB4ACAAAAAAAAAAAQAACAAAAQCAAAAAAAAAEAAAgEAAQAIBACAAAJAAACAAAAAACAAAAAAAAAABBAAAAAAAABAQAAAAAQIAgAAAAAEAAAAAAAAAAAAAAAAAAAAAIAA

> <ActivityOutcome_CPDBAS_Rat>
active

> <TD50_Rat_mmol>
0.108

$$$$

  CDK     0721101958

 29 28  0  0  0  0  0  0  0  0999 V2000
    8.6397   -7.3094    0.0000 O   0  0  0  0  0  2  0  0  0  0  0  0
    7.3094   -7.3094    0.0000 P   0  0  0  0  0  5  0  0  0  0  0  0
    7.3094   -8.6397    0.0000 O   0  0  0  0  0  2  0  0  0  0  0  0
    8.4642   -9.2975    0.0000 C   0  0  0  0  0  4  0  0  0  0  0  0
    8.4642  -10.6278    0.0000 C   0  0  0  0  0  4  0  0  0  0  0  0
    9.6045  -11.3003    0.0000 C   0  0  0  0  0  4  0  0  0  0  0  0
    9.6045  -12.6306    0.0000 C   0  0  0  0  0  4  0  0  0  0  0  0
   10.7594  -13.2884    0.0000 C   0  0  0  0  0  4  0  0  0  0  0  0
   10.7594  -14.6187    0.0000 C   0  0  0  0  0  4  0  0  0  0  0  0
    7.3094  -11.3003    0.0000 C   0  0  0  0  0  4  0  0  0  0  0  0
    7.3094  -12.6306    0.0000 C   0  0  0  0  0  4  0  0  0  0  0  0
    7.3094   -5.9791    0.0000 O   0  0  0  0  0  2  0  0  0  0  0  0
    8.4642   -5.3212    0.0000 C   0  0  0  0  0  4  0  0  0  0  0  0
    8.4642   -3.9909    0.0000 C   0  0  0  0  0  4  0  0  0  0  0  0
    7.3094   -3.3185    0.0000 C   0  0  0  0  0  4  0  0  0  0  0  0
    7.3094   -1.9881    0.0000 C   0  0  0  0  0  4  0  0  0  0  0  0
    6.1545   -1.3303    0.0000 C   0  0  0  0  0  4  0  0  0  0  0  0
    6.1545    0.0000    0.0000 C   0  0  0  0  0  4  0  0  0  0  0  0
    9.6045   -3.3185    0.0000 C   0  0  0  0  0  4  0  0  0  0  0  0
    9.6045   -1.9881    0.0000 C   0  0  0  0  0  4  0  0  0  0  0  0
    5.9791   -7.3094    0.0000 O   0  0  0  0  0  2  0  0  0  0  0  0
    5.3212   -8.4642    0.0000 C   0  0  0  0  0  4  0  0  0  0  0  0
    3.9909   -8.4642    0.0000 C   0  0  0  0  0  4  0  0  0  0  0  0
    3.3185   -9.6045    0.0000 C   0  0  0  0  0  4  0  0  0  0  0  0
    1.9881   -9.6045    0.0000 C   0  0  0  0  0  4  0  0  0  0  0  0
    1.3303  -10.7594    0.0000 C   0  0  0  0  0  4  0  0  0  0  0  0
    0.0000  -10.7594    0.0000 C   0  0  0  0  0  4  0  0  0  0  0  0
    3.3185   -7.3094    0.0000 C   0  0  0  0  0  4  0  0  0  0  0  0
    1.9881   -7.3094    0.0000 C   0  0  0  0  0  4  0  0  0  0  0  0
  1  2  2  0  0  0  0 
  2  3  1  0  0  0  0 
  2 12  1  0  0  0  0 
  2 21  1  0  0  0  0 
  3  4  1  0  0  0  0 
  4  5  1  0  0  0  0 
  5  6  1  0  0  0  0 
  5 10  1  0  0  0  0 
  6  7  1  0  0  0  0 
  7  8  1  0  0  0  0 
  8  9  1  0  0  0  0 
 10 11  1  0  0  0  0 
 12 13  1  0  0  0  0 
 13 14  1  0  0  0  0 
 14 15  1  0  0  0  0 
 14 19  1  0  0  0  0 
 15 16  1  0  0  0  0 
 16 17  1  0  0  0  0 
 17 18  1  0  0  0  0 
 19 20  1  0  0  0  0 
 21 22  1  0  0  0  0 
 22 23  1  0  0  0  0 
 23 24  1  0  0  0  0 
 23 28  1  0  0  0  0 
 24 25  1  0  0  0  0 
 25 26  1  0  0  0  0 
 26 27  1  0  0  0  0 
 28 29  1  0  0  0  0 
M  END
> <CDK Fingerprint>
AgAgAgAAAAAAAAAAAAAACEAAAoAgAAAAAAkBYABAAEAAACAAAAQAECACIAAAAAAAAAAAAERAAgCAAQAAgAAAAABIAAAAACEAAAAAAAAAAAAABBAAAIAAAAAAQAAAAAQIAgCAAQAUAAAAAAAAAAAQAAAAAAAAAIAA

> <ActivityOutcome_CPDBAS_Rat>
inactive

$$$$

  CDK     0721101958

 13 12  0  0  0  0  0  0  0  0999 V2000
    0.0000   -5.7554    0.0000 C   0  0  0  0  0  4  0  0  0  0  0  0
    0.6641   -4.6067    0.0000 C   0  0  0  0  0  4  0  0  0  0  0  0
    1.9922   -4.6067    0.0000 C   0  0  0  0  0  4  0  0  0  0  0  0
    2.6563   -3.4520    0.0000 N   0  0  0  0  0  3  0  0  0  0  0  0
    1.9922   -2.3033    0.0000 C   0  0  0  0  0  4  0  0  0  0  0  0
    2.6563   -1.1487    0.0000 C   0  0  0  0  0  4  0  0  0  0  0  0
    3.9905   -1.1487    0.0000 C   0  0  0  0  0  4  0  0  0  0  0  0
    1.9922    0.0000    0.0000 O   0  0  0  0  0  2  0  0  0  0  0  0
    3.9905   -3.4520    0.0000 C   0  0  0  0  0  4  0  0  0  0  0  0
    4.6546   -4.6067    0.0000 C   0  0  0  0  0  4  0  0  0  0  0  0
    5.9827   -4.6067    0.0000 C   0  0  0  0  0  4  0  0  0  0  0  0
    3.9905   -5.7554    0.0000 O   0  0  0  0  0  2  0  0  0  0  0  0
    0.0000   -3.4520    0.0000 O   0  0  0  0  0  2  0  0  0  0  0  0
  1  2  1  0  0  0  0 
  2  3  1  0  0  0  0 
  2 13  1  0  0  0  0 
  3  4  1  0  0  0  0 
  4  5  1  0  0  0  0 
  4  9  1  0  0  0  0 
  5  6  1  0  0  0  0 
  6  7  1  0  0  0  0 
  6  8  1  0  0  0  0 
  9 10  1  0  0  0  0 
 10 11  1  0  0  0  0 
 10 12  1  0  0  0  0 
M  END
> <CDK Fingerprint>
EAAAAAAAAgAAAgABAAAAAAAAAAAAAAAAAAAAAAAAAAAAYAAEAAAAAAAAAAAACCAAEAAAAAAAAAAAAMAAAAAAAAAAAAAAAAAAAAAAAACAAAAAQCAAAAAAABAAAAAAAAAAAAAAAAAAAARAAAAAAAAAAAAAAAABAAAAAAAAAgAA

> <ActivityOutcome_CPDBAS_Rat>
inactive

$$$$

  CDK     0721101958

 35 34  0  0  0  0  0  0  0  0999 V2000
    0.0000   -2.2986    0.0000 C   0  0  0  0  0  4  0  0  0  0  0  0
    1.3409   -2.2986    0.0000 C   0  0  0  0  0  4  0  0  0  0  0  0
    1.9794   -3.4479    0.0000 C   0  0  0  0  0  4  0  0  0  0  0  0
    3.3202   -3.4479    0.0000 C   0  0  0  0  0  4  0  0  0  0  0  0
    3.9907   -4.5972    0.0000 C   0  0  0  0  0  4  0  0  0  0  0  0
    5.3315   -4.5972    0.0000 C   0  0  0  0  0  4  0  0  0  0  0  0
    6.0020   -5.7785    0.0000 C   0  0  0  0  0  4  0  0  0  0  0  0
    7.3109   -5.7785    0.0000 C   0  0  0  0  0  4  0  0  0  0  0  0
    7.9813   -6.9278    0.0000 C   0  0  0  0  0  4  0  0  0  0  0  0
    9.3222   -6.9278    0.0000 C   0  0  0  0  0  4  0  0  0  0  0  0
    9.9926   -8.0771    0.0000 C   0  0  0  0  0  4  0  0  0  0  0  0
   11.3016   -8.0771    0.0000 C   0  0  0  0  0  4  0  0  0  0  0  0
   11.9720   -9.2264    0.0000 C   0  0  0  0  0  4  0  0  0  0  0  0
   13.3129   -9.2264    0.0000 C   0  0  0  0  0  4  0  0  0  0  0  0
   13.9833  -10.3757    0.0000 C   0  0  0  0  0  4  0  0  0  0  0  0
   15.2922  -10.3757    0.0000 C   0  0  0  0  0  4  0  0  0  0  0  0
   15.9627   -9.2264    0.0000 C   0  0  0  0  0  4  0  0  0  0  0  0
   17.3035   -9.2264    0.0000 C   0  0  0  0  0  4  0  0  0  0  0  0
   17.9740   -8.0771    0.0000 C   0  0  0  0  0  4  0  0  0  0  0  0
   19.2829   -8.0771    0.0000 C   0  0  0  0  0  4  0  0  0  0  0  0
   19.9533   -6.9278    0.0000 C   0  0  0  0  0  4  0  0  0  0  0  0
   21.2942   -6.9278    0.0000 C   0  0  0  0  0  4  0  0  0  0  0  0
   21.9646   -5.7785    0.0000 C   0  0  0  0  0  4  0  0  0  0  0  0
   23.2736   -5.7785    0.0000 C   0  0  0  0  0  4  0  0  0  0  0  0
   23.9440   -4.5972    0.0000 C   0  0  0  0  0  4  0  0  0  0  0  0
   25.2849   -4.5972    0.0000 C   0  0  0  0  0  4  0  0  0  0  0  0
   25.9553   -3.4479    0.0000 C   0  0  0  0  0  4  0  0  0  0  0  0
   27.2642   -3.4479    0.0000 C   0  0  0  0  0  4  0  0  0  0  0  0
   27.9347   -2.2986    0.0000 C   0  0  0  0  0  4  0  0  0  0  0  0
   29.2755   -2.2986    0.0000 C   0  0  0  0  0  4  0  0  0  0  0  0
   29.9460   -1.1493    0.0000 C   0  0  0  0  0  4  0  0  0  0  0  0
   31.2549   -1.1493    0.0000 C   0  0  0  0  0  4  0  0  0  0  0  0
   31.9253    0.0000    0.0000 C   0  0  0  0  0  4  0  0  0  0  0  0
   15.9627  -11.5250    0.0000 O   0  0  0  0  0  2  0  0  0  0  0  0
   17.9740  -10.3757    0.0000 O   0  0  0  0  0  2  0  0  0  0  0  0
  1  2  1  0  0  0  0 
  2  3  1  0  0  0  0 
  3  4  1  0  0  0  0 
  4  5  1  0  0  0  0 
  5  6  1  0  0  0  0 
  6  7  1  0  0  0  0 
  7  8  1  0  0  0  0 
  8  9  1  0  0  0  0 
  9 10  1  0  0  0  0 
 10 11  1  0  0  0  0 
 11 12  1  0  0  0  0 
 12 13  1  0  0  0  0 
 13 14  1  0  0  0  0 
 14 15  1  0  0  0  0 
 15 16  1  0  0  0  0 
 16 17  1  0  0  0  0 
 16 34  2  0  0  0  0 
 17 18  1  0  0  0  0 
 18 19  1  0  0  0  0 
 18 35  2  0  0  0  0 
 19 20  1  0  0  0  0 
 20 21  1  0  0  0  0 
 21 22  1  0  0  0  0 
 22 23  1  0  0  0  0 
 23 24  1  0  0  0  0 
 24 25  1  0  0  0  0 
 25 26  1  0  0  0  0 
 26 27  1  0  0  0  0 
 27 28  1  0  0  0  0 
 28 29  1  0  0  0  0 
 29 30  1  0  0  0  0 
 30 31  1  0  0  0  0 
 31 32  1  0  0  0  0 
 32 33  1  0  0  0  0 
M  END
> <CDK Fingerprint>
EAAEAAAAAAAAAAAAQAAAAAAAAAABAQBgAAAAAAAAAAAAAAAAIAAAAAAAAAAAAAAgQAAAAABAAAAAAAAAAAAEAAAAAQAAAAAAAAAAAAAAAAAAAAAAAABAAAAAQAAAAAAAABAAAQAAAAAAEAAAAAAAAAQAAAA=

> <ActivityOutcome_CPDBAS_Rat>
inactive

$$$$

  CDK     0721101958

 15 16  0  0  0  0  0  0  0  0999 V2000
    7.1512   -3.2855    0.0000 N   0  0  0  0  0  3  0  0  0  0  0  0
    6.2103   -2.3445    0.0000 C   0  0  0  0  0  4  0  0  0  0  0  0
    4.9478   -2.7523    0.0000 C   0  0  0  0  0  4  0  0  0  0  0  0
    3.9598   -1.8662    0.0000 C   0  0  0  0  0  4  0  0  0  0  0  0
    4.1010   -0.5410    0.0000 C   0  0  0  0  0  4  0  0  0  0  0  0
    2.8856    0.0000    0.0000 N   0  0  0  0  0  3  0  0  0  0  0  0
    1.9917   -0.9880    0.0000 C   0  0  0  0  0  4  0  0  0  0  0  0
    2.6582   -2.1407    0.0000 C   0  0  0  0  0  4  0  0  0  0  0  0
    1.9917   -3.2933    0.0000 C   0  0  0  0  0  4  0  0  0  0  0  0
    0.6665   -3.2933    0.0000 C   0  0  0  0  0  4  0  0  0  0  0  0
    0.0000   -2.1407    0.0000 C   0  0  0  0  0  4  0  0  0  0  0  0
    0.6665   -0.9880    0.0000 C   0  0  0  0  0  4  0  0  0  0  0  0
    6.5553   -1.0586    0.0000 C   0  0  0  0  0  4  0  0  0  0  0  0
    5.6143   -0.1176    0.0000 O   0  0  0  0  0  2  0  0  0  0  0  0
    7.8412   -0.7136    0.0000 O   0  0  0  0  0  2  0  0  0  0  0  0
  1  2  1  0  0  0  0 
  2  3  1  0  0  0  0 
  2 13  1  0  0  0  0 
  3  4  1  0  0  0  0 
  4  5  2  0  0  0  0 
  4  8  1  0  0  0  0 
  5  6  1  0  0  0  0 
  6  7  1  0  0  0  0 
  7  8  2  0  0  0  0 
  7 12  1  0  0  0  0 
  8  9  1  0  0  0  0 
  9 10  2  0  0  0  0 
 10 11  1  0  0  0  0 
 11 12  2  0  0  0  0 
 13 14  2  0  0  0  0 
 13 15  1  0  0  0  0 
M  END
> <CDK Fingerprint>
CgmQAoACoIIeAgEAwAAIAAAAAACAIAAAIAAACGAICABgAABAAAgAAQAAEAQYIAAIAAAAAABAAAAgQJAIAAEVDAcAAIAABAkCAKAAAAQAgACAgAACAACAOAAAAIgAIEDAAUAwCIEAAIICURAEAZwAHACAWjAGAEAAAAACAAA=

> <ActivityOutcome_CPDBAS_Rat>
inactive

$$$$

  CDK     0721101958

 15 16  0  0  0  0  0  0  0  0999 V2000
    7.1570   -1.2829    0.0000 C   0  0  0  0  0  4  0  0  0  0  0  0
    6.5578   -3.5110    0.0000 N   0  0  0  0  0  3  0  0  0  0  0  0
    6.2117   -2.2197    0.0000 C   0  0  0  0  0  4  0  0  0  0  0  0
    4.9458   -1.8146    0.0000 C   0  0  0  0  0  4  0  0  0  0  0  0
    3.9583   -2.7008    0.0000 C   0  0  0  0  0  4  0  0  0  0  0  0
    4.1018   -4.0258    0.0000 C   0  0  0  0  0  4  0  0  0  0  0  0
    2.8864   -4.5660    0.0000 N   0  0  0  0  0  3  0  0  0  0  0  0
    1.9918   -3.5785    0.0000 C   0  0  0  0  0  4  0  0  0  0  0  0
    0.6667   -3.5785    0.0000 C   0  0  0  0  0  4  0  0  0  0  0  0
    0.0000   -2.4222    0.0000 C   0  0  0  0  0  4  0  0  0  0  0  0
    0.6667   -1.2744    0.0000 C   0  0  0  0  0  4  0  0  0  0  0  0
    1.9918   -1.2744    0.0000 C   0  0  0  0  0  4  0  0  0  0  0  0
    2.6586   -2.4222    0.0000 C   0  0  0  0  0  4  0  0  0  0  0  0
    6.8110    0.0000    0.0000 O   0  0  0  0  0  2  0  0  0  0  0  0
    8.4398   -1.6289    0.0000 O   0  0  0  0  0  2  0  0  0  0  0  0
  1  3  1  0  0  0  0 
  1 14  2  0  0  0  0 
  1 15  1  0  0  0  0 
  3  2  1  1  0  0  0 
  3  4  1  0  0  0  0 
  4  5  1  0  0  0  0 
  5  6  2  0  0  0  0 
  5 13  1  0  0  0  0 
  6  7  1  0  0  0  0 
  7  8  1  0  0  0  0 
  8  9  2  0  0  0  0 
  8 13  1  0  0  0  0 
  9 10  1  0  0  0  0 
 10 11  2  0  0  0  0 
 11 12  1  0  0  0  0 
 12 13  2  0  0  0  0 
M  END
> <CDK Fingerprint>
CgmQAoACoIIeAgEAwAAIAAAAAACAIAAAIAAACGAICABgAABAAAgAAQAAEAQYIAAIAAAAAABAAAAgQJAIAAEVDAcAAIAABAkCAKAAAAQAgACAgAACAACAOAAAAIgAIEDAAUAwCIEAAIICURAEAZwAHACAWjAGAEAAAAACAAA=

> <ActivityOutcome_CPDBAS_Rat>
inactive

$$$$

  CDK     0721101958

 27 28  0  0  0  0  0  0  0  0999 V2000
    2.2921   -2.0015    0.0000 C   0  0  0  0  0  4  0  0  0  0  0  0
   13.8331   -2.0015    0.0000 C   0  0  0  0  0  4  0  0  0  0  0  0
    5.7625   -4.0031    0.0000 C   0  0  0  0  0  4  0  0  0  0  0  0
   10.3789   -4.0031    0.0000 C   0  0  0  0  0  4  0  0  0  0  0  0
   11.5249   -4.6649    0.0000 C   0  0  0  0  0  4  0  0  0  0  0  0
    4.6003   -4.6649    0.0000 C   0  0  0  0  0  4  0  0  0  0  0  0
    1.1622   -2.6633    0.0000 C   0  0  0  0  0  4  0  0  0  0  0  0
   14.9792   -2.6633    0.0000 C   0  0  0  0  0  4  0  0  0  0  0  0
    6.9085   -4.6649    0.0000 C   0  0  0  0  0  4  0  0  0  0  0  0
    9.2167   -4.6649    0.0000 C   0  0  0  0  0  4  0  0  0  0  0  0
    8.0707   -4.0031    0.0000 C   0  0  0  0  0  4  0  0  0  0  0  0
   12.6871   -2.6633    0.0000 C   0  0  0  0  0  4  0  0  0  0  0  0
    3.4542   -2.6633    0.0000 C   0  0  0  0  0  4  0  0  0  0  0  0
    3.4542   -4.0031    0.0000 C   0  0  0  0  0  4  0  0  0  0  0  0
   12.6871   -4.0031    0.0000 C   0  0  0  0  0  4  0  0  0  0  0  0
    6.9085   -6.0046    0.0000 O   0  0  0  0  0  2  0  0  0  0  0  0
    9.2167   -6.0046    0.0000 O   0  0  0  0  0  2  0  0  0  0  0  0
    1.1622   -4.0031    0.0000 C   0  0  0  0  0  4  0  0  0  0  0  0
   14.9792   -4.0031    0.0000 C   0  0  0  0  0  4  0  0  0  0  0  0
   13.8331   -4.6649    0.0000 C   0  0  0  0  0  4  0  0  0  0  0  0
    2.2921   -4.6649    0.0000 C   0  0  0  0  0  4  0  0  0  0  0  0
    2.2921   -0.6779    0.0000 O   0  0  0  0  0  2  0  0  0  0  0  0
   13.8331   -0.6779    0.0000 O   0  0  0  0  0  2  0  0  0  0  0  0
    0.0000   -2.0015    0.0000 O   0  0  0  0  0  2  0  0  0  0  0  0
   16.1414   -2.0015    0.0000 O   0  0  0  0  0  2  0  0  0  0  0  0
   14.9792    0.0000    0.0000 C   0  0  0  0  0  4  0  0  0  0  0  0
    1.1622    0.0000    0.0000 C   0  0  0  0  0  4  0  0  0  0  0  0
  1  7  1  0  0  0  0 
  1 13  2  0  0  0  0 
  1 22  1  0  0  0  0 
  2 12  2  0  0  0  0 
  2 23  1  0  0  0  0 
  2  8  1  0  0  0  0 
  3  6  2  0  0  0  0 
  3  9  1  0  0  0  0 
  4 10  1  0  0  0  0 
  4  5  2  0  0  0  0 
  5 15  1  0  0  0  0 
  6 14  1  0  0  0  0 
  7 18  2  0  0  0  0 
  7 24  1  0  0  0  0 
  8 19  2  0  0  0  0 
  8 25  1  0  0  0  0 
  9 11  1  0  0  0  0 
  9 16  2  0  0  0  0 
 10 11  1  0  0  0  0 
 10 17  2  0  0  0  0 
 12 15  1  0  0  0  0 
 13 14  1  0  0  0  0 
 14 21  2  0  0  0  0 
 15 20  2  0  0  0  0 
 18 21  1  0  0  0  0 
 19 20  1  0  0  0  0 
 22 27  1  0  0  0  0 
 23 26  1  0  0  0  0 
M  END
> <CDK Fingerprint>
QBAAEAAAAgQIAAIAAAAAEAAAAggEIACAQAQQAAgAACoBImEAZADAiEAgAAAAABAgAAAgAAAQAEAAACDAAAQAAEaQAARACBIAAAIEAgAAgCAQAAAAAAgAAIAAAAACgAAggEAIQSAoIEAZEAJCEAgBAAAAAICwCAACAABgACAQIA==

> <ActivityOutcome_CPDBAS_Rat>
inactive

$$$$

  CDK     0721101958

  8  8  0  0  0  0  0  0  0  0999 V2000
    4.6080   -2.6588    0.0000 O   0  0  0  0  0  2  0  0  0  0  0  0
    3.4560   -1.9953    0.0000 C   0  0  0  0  0  4  0  0  0  0  0  0
    2.3040   -2.6588    0.0000 N   0  0  0  0  0  3  0  0  0  0  0  0
    1.1520   -1.9953    0.0000 C   0  0  0  0  0  4  0  0  0  0  0  0
    0.0000   -2.6588    0.0000 O   0  0  0  0  0  2  0  0  0  0  0  0
    1.1520   -0.6635    0.0000 N   0  0  0  0  0  3  0  0  0  0  0  0
    2.3040    0.0000    0.0000 C   0  0  0  0  0  4  0  0  0  0  0  0
    3.4560   -0.6635    0.0000 C   0  0  0  0  0  4  0  0  0  0  0  0
  1  2  2  0  0  0  0 
  2  3  1  0  0  0  0 
  2  8  1  0  0  0  0 
  3  4  1  0  0  0  0 
  4  5  2  0  0  0  0 
  4  6  1  0  0  0  0 
  6  7  1  0  0  0  0 
  7  8  2  0  0  0  0 
M  END
> <CDK Fingerprint>
QEAgAAAwAAACEABAAAAQAAAAAAAAAEAAAAAAAgAAAAACAABgAAAAgAAAAAAAgAFAIAAAAAAAEAgCAAIAgAAAAIAAAAABAAABAAAAAAAAAIAAAAAAAIAACAAAAAAAEAAEAABAAAABAAAAAgAgAAAAAAAAQAAEdAAAAEAAEAACIAA=

> <ActivityOutcome_CPDBAS_Rat>
active

> <TD50_Rat_mmol>
5.99

$$$$

  CDK     0721101958

 28 30  0  0  0  0  0  0  0  0999 V2000
   13.8102   -4.6682    0.0000 C   0  0  0  0  0  4  0  0  0  0  0  0
   12.6432   -3.9949    0.0000 N   0  0  0  0  0  3  0  0  0  0  0  0
   13.8102   -5.9849    0.0000 N   0  0  0  0  0  3  0  0  0  0  0  0
   11.4911   -4.6682    0.0000 C   0  0  0  0  0  4  0  0  0  0  0  0
   12.6432   -6.6582    0.0000 C   0  0  0  0  0  4  0  0  0  0  0  0
   11.4911   -5.9849    0.0000 C   0  0  0  0  0  4  0  0  0  0  0  0
    3.4563   -2.6633    0.0000 N   0  0  0  0  0  3  0  0  0  0  0  0
    2.2892   -1.9900    0.0000 C   0  0  0  0  0  4  0  0  0  0  0  0
    5.7455   -3.9800    0.0000 N   0  0  0  0  0  3  0  0  0  0  0  0
   14.9623   -3.9800    0.0000 O   0  0  0  0  0  2  0  0  0  0  0  0
   12.6432   -7.9899    0.0000 O   0  0  0  0  0  2  0  0  0  0  0  0
   10.3390   -3.9800    0.0000 N   0  0  0  0  0  3  0  0  0  0  0  0
    3.4563   -3.9800    0.0000 C   0  0  0  0  0  4  0  0  0  0  0  0
    4.5934   -1.9900    0.0000 C   0  0  0  0  0  4  0  0  0  0  0  0
    1.1521   -2.6633    0.0000 C   0  0  0  0  0  4  0  0  0  0  0  0
   12.6432   -2.6633    0.0000 C   0  0  0  0  0  4  0  0  0  0  0  0
   14.9623   -6.6732    0.0000 C   0  0  0  0  0  4  0  0  0  0  0  0
    4.5934   -4.6533    0.0000 C   0  0  0  0  0  4  0  0  0  0  0  0
    5.7455   -2.6633    0.0000 C   0  0  0  0  0  4  0  0  0  0  0  0
    1.1521   -3.9650    0.0000 O   0  0  0  0  0  2  0  0  0  0  0  0
    6.8827   -4.6533    0.0000 C   0  0  0  0  0  4  0  0  0  0  0  0
    8.0497   -3.9800    0.0000 C   0  0  0  0  0  4  0  0  0  0  0  0
    2.2892   -0.6583    0.0000 C   0  0  0  0  0  4  0  0  0  0  0  0
    9.1869   -4.6533    0.0000 C   0  0  0  0  0  4  0  0  0  0  0  0
    0.0000   -1.9900    0.0000 C   0  0  0  0  0  4  0  0  0  0  0  0
    0.0000   -4.6383    0.0000 C   0  0  0  0  0  4  0  0  0  0  0  0
    1.1521    0.0000    0.0000 C   0  0  0  0  0  4  0  0  0  0  0  0
    0.0000   -0.6583    0.0000 C   0  0  0  0  0  4  0  0  0  0  0  0
  1  2  1  0  0  0  0 
  1  3  1  0  0  0  0 
  1 10  2  0  0  0  0 
  2  4  1  0  0  0  0 
  2 16  1  0  0  0  0 
  3  5  1  0  0  0  0 
  3 17  1  0  0  0  0 
  4 12  1  0  0  0  0 
  4  6  2  0  0  0  0 
  5  6  1  0  0  0  0 
  5 11  2  0  0  0  0 
  7 14  1  0  0  0  0 
  7  8  1  0  0  0  0 
  7 13  1  0  0  0  0 
  8 15  2  0  0  0  0 
  8 23  1  0  0  0  0 
  9 21  1  0  0  0  0 
  9 18  1  0  0  0  0 
  9 19  1  0  0  0  0 
 12 24  1  0  0  0  0 
 13 18  1  0  0  0  0 
 14 19  1  0  0  0  0 
 15 20  1  0  0  0  0 
 15 25  1  0  0  0  0 
 20 26  1  0  0  0  0 
 21 22  1  0  0  0  0 
 22 24  1  0  0  0  0 
 23 27  2  0  0  0  0 
 25 28  2  0  0  0  0 
 27 28  1  0  0  0  0 
M  END
> <CDK Fingerprint>
QEAwAAIwBAAiECJCAREwAAkBAAAAAEJAgQEACgIESEICCBJhAAAEwAEBoAAAgAHAIAhUMAgQEghWACOgwAUQAMAKkAABRAERwBEABACgAPWGAAAAIMCACAAAAFAAEAAEIEBICACjoCAwAmAiEACgQAIAQAiEdEAAQMBAEAguMAg=

> <ActivityOutcome_CPDBAS_Rat>
inactive

$$$$

  CDK     0721101958

  4  3  0  0  0  0  0  0  0  0999 V2000
    1.3292   -1.1518    0.0000 C   0  0  0  0  0  4  0  0  0  0  0  0
    1.9950    0.0000    0.0000 N   0  0  0  0  0  3  0  0  0  0  0  0
    1.9950   -2.3037    0.0000 N   0  0  0  0  0  3  0  0  0  0  0  0
    0.0000   -1.1518    0.0000 O   0  0  0  0  0  2  0  0  0  0  0  0
  1  2  1  0  0  0  0 
  1  3  1  0  0  0  0 
  1  4  2  0  0  0  0 
M  END
> <CDK Fingerprint>
EAAAAAAAAAAAAAAAAAAAAAAAAAAAAAAAAABgAAAAAAAAAAAAAAAAAAAAAAAAAAAAAAAAAAAAAAAAAAAAAAAAAAAAAAAAAAAAAAAAAAAAAAAAAAAAAAAAAABAAAAAAAAAAAAAAAAAAAAAAAAAQAAAAAAAAAACAAA=

> <ActivityOutcome_CPDBAS_Rat>
inactive

$$$$

  CDK     0721101958

  6  5  0  0  0  0  0  0  0  0999 V2000
    4.6084   -1.9954    0.0000 N   0  0  0  0  0  3  0  0  0  0  0  0
    3.4563   -1.3318    0.0000 C   0  0  0  0  0  4  0  0  0  0  0  0
    3.4563    0.0000    0.0000 O   0  0  0  0  0  2  0  0  0  0  0  0
    2.3042   -1.9954    0.0000 O   0  0  0  0  0  2  0  0  0  0  0  0
    1.1521   -1.3318    0.0000 C   0  0  0  0  0  4  0  0  0  0  0  0
    0.0000   -1.9954    0.0000 C   0  0  0  0  0  4  0  0  0  0  0  0
  1  2  1  0  0  0  0 
  2  3  2  0  0  0  0 
  2  4  1  0  0  0  0 
  4  5  1  0  0  0  0 
  5  6  1  0  0  0  0 
M  END
> <CDK Fingerprint>
AIAAAAAAAAACAAAAAAAAAAAAAAAAgAAAAIAAAAAAAABgAAAAAAAAAAAAAABAIAIAAAAAAAAAAAAAAAAAAAAAAAAAAAAAAAAAAAAAAAAAAAAAAAAAAAAAEQAAAAAAAABAAAAAAAAAAEAAAAAAAAAAAAAAQAAAAAAAAAACAAA=

> <ActivityOutcome_CPDBAS_Rat>
active

> <TD50_Rat_mmol>
0.464

$$$$

  CDK     0721101958

 59 67  0  0  0  0  0  0  0  0999 V2000
    5.2768   -4.3543    0.0000 C   0  0  0  0  0  4  0  0  0  0  0  0
   12.8046   -6.1993    0.0000 C   0  0  0  0  0  4  0  0  0  0  0  0
   13.9301   -8.0075    0.0000 C   0  0  0  0  0  4  0  0  0  0  0  0
    4.1882   -3.7454    0.0000 C   0  0  0  0  0  4  0  0  0  0  0  0
   12.8046   -7.4355    0.0000 C   0  0  0  0  0  4  0  0  0  0  0  0
   14.9818   -6.1993    0.0000 C   0  0  0  0  0  4  0  0  0  0  0  0
   11.7529   -8.0075    0.0000 N   0  0  0  0  0  3  0  0  0  0  0  0
   13.9301   -5.6089    0.0000 C   0  0  0  0  0  4  0  0  0  0  0  0
   10.7013   -7.4355    0.0000 C   0  0  0  0  0  4  0  0  0  0  0  0
   14.9818   -7.4355    0.0000 C   0  0  0  0  0  4  0  0  0  0  0  0
   10.7013   -6.1993    0.0000 C   0  0  0  0  0  4  0  0  0  0  0  0
    8.5795   -6.1993    0.0000 C   0  0  0  0  0  4  0  0  0  0  0  0
    4.1882   -2.5277    0.0000 C   0  0  0  0  0  4  0  0  0  0  0  0
    3.1550   -4.3543    0.0000 N   0  0  0  0  0  3  0  0  0  0  0  0
    9.6127   -8.0075    0.0000 C   0  0  0  0  0  4  0  0  0  0  0  0
    9.6127   -5.6089    0.0000 C   0  0  0  0  0  4  0  0  0  0  0  0
   13.9301   -4.3543    0.0000 N   0  0  0  0  0  3  0  0  0  0  0  0
    5.2768   -5.6089    0.0000 C   0  0  0  0  0  4  0  0  0  0  0  0
    2.1403   -2.5277    0.0000 C   0  0  0  0  0  4  0  0  0  0  0  0
   14.5389   -9.1883    0.0000 C   0  0  0  0  0  4  0  0  0  0  0  0
    8.5795   -7.4355    0.0000 C   0  0  0  0  0  4  0  0  0  0  0  0
    2.1403   -3.7454    0.0000 C   0  0  0  0  0  4  0  0  0  0  0  0
    5.2768   -0.6273    0.0000 N   0  0  0  0  0  3  0  0  0  0  0  0
   11.7529   -5.6089    0.0000 C   0  0  0  0  0  4  0  0  0  0  0  0
    6.3469   -3.7454    0.0000 C   0  0  0  0  0  4  0  0  0  0  0  0
   16.1257   -8.0813    0.0000 O   0  0  0  0  0  2  0  0  0  0  0  0
   16.0519   -5.6089    0.0000 C   0  0  0  0  0  4  0  0  0  0  0  0
    3.1550   -1.9004    0.0000 C   0  0  0  0  0  4  0  0  0  0  0  0
    7.3986   -0.6458    0.0000 C   0  0  0  0  0  4  0  0  0  0  0  0
    6.3469   -2.5277    0.0000 C   0  0  0  0  0  4  0  0  0  0  0  0
   17.3434   -7.3802    0.0000 C   0  0  0  0  0  4  0  0  0  0  0  0
   11.7529   -4.3543    0.0000 C   0  0  0  0  0  4  0  0  0  0  0  0
   13.4504   -8.9300    0.0000 O   0  0  0  0  0  2  0  0  0  0  0  0
   16.0703   -4.3543    0.0000 C   0  0  0  0  0  4  0  0  0  0  0  0
    6.3469   -0.0738    0.0000 C   0  0  0  0  0  4  0  0  0  0  0  0
    5.2768   -1.9004    0.0000 C   0  0  0  0  0  4  0  0  0  0  0  0
   13.9301  -10.2953    0.0000 O   0  0  0  0  0  2  0  0  0  0  0  0
    6.3654   -6.3100    0.0000 O   0  0  0  0  0  2  0  0  0  0  0  0
    3.1550   -0.6273    0.0000 C   0  0  0  0  0  4  0  0  0  0  0  0
   17.3434   -8.8562    0.0000 O   0  0  0  0  0  2  0  0  0  0  0  0
    7.3986   -1.8635    0.0000 C   0  0  0  0  0  4  0  0  0  0  0  0
   16.2548   -6.9005    0.0000 C   0  0  0  0  0  4  0  0  0  0  0  0
   11.7529   -9.2806    0.0000 C   0  0  0  0  0  4  0  0  0  0  0  0
   14.9449   -3.7639    0.0000 C   0  0  0  0  0  4  0  0  0  0  0  0
   15.8674   -9.1883    0.0000 O   0  0  0  0  0  2  0  0  0  0  0  0
    4.1144   -6.2547    0.0000 O   0  0  0  0  0  2  0  0  0  0  0  0
    7.4355   -8.0997    0.0000 O   0  0  0  0  0  2  0  0  0  0  0  0
    8.5426    0.0000    0.0000 O   0  0  0  0  0  2  0  0  0  0  0  0
    1.0701   -1.9004    0.0000 C   0  0  0  0  0  4  0  0  0  0  0  0
    1.0701   -4.3543    0.0000 C   0  0  0  0  0  4  0  0  0  0  0  0
    8.5057   -1.2362    0.0000 C   0  0  0  0  0  4  0  0  0  0  0  0
   18.4504   -8.0075    0.0000 C   0  0  0  0  0  4  0  0  0  0  0  0
    3.0628   -5.6827    0.0000 C   0  0  0  0  0  4  0  0  0  0  0  0
   16.5316  -10.3322    0.0000 C   0  0  0  0  0  4  0  0  0  0  0  0
    6.3100   -7.4355    0.0000 C   0  0  0  0  0  4  0  0  0  0  0  0
   17.3250   -6.2547    0.0000 C   0  0  0  0  0  4  0  0  0  0  0  0
    9.5942   -0.6458    0.0000 C   0  0  0  0  0  4  0  0  0  0  0  0
    0.0000   -2.5277    0.0000 C   0  0  0  0  0  4  0  0  0  0  0  0
    0.0000   -3.7454    0.0000 C   0  0  0  0  0  4  0  0  0  0  0  0
  1  4  1  0  0  0  0 
  1 12  1  6  0  0  0 
  1 18  1  1  0  0  0 
  1 25  1  0  0  0  0 
  2 11  1  0  0  0  0 
  2  5  1  0  0  0  0 
  2  8  1  0  0  0  0 
  2 24  1  1  0  0  0 
  3  5  1  0  0  0  0 
  3 20  1  6  0  0  0 
  3 33  1  1  0  0  0 
  3 10  1  0  0  0  0 
  4 13  2  0  0  0  0 
  4 14  1  0  0  0  0 
  5  7  1  0  0  0  0 
  6  8  1  0  0  0  0 
  6 10  1  0  0  0  0 
  6 27  1  0  0  0  0 
  6 42  1  6  0  0  0 
  7  9  1  0  0  0  0 
  7 43  1  0  0  0  0 
  8 17  1  0  0  0  0 
  9 15  1  0  0  0  0 
  9 11  2  0  0  0  0 
 10 26  1  1  0  0  0 
 11 16  1  0  0  0  0 
 12 16  2  0  0  0  0 
 12 21  1  0  0  0  0 
 13 19  1  0  0  0  0 
 13 28  1  0  0  0  0 
 14 22  1  0  0  0  0 
 15 21  2  0  0  0  0 
 17 44  1  0  0  0  0 
 17 32  1  0  0  0  0 
 18 38  2  0  0  0  0 
 18 46  1  0  0  0  0 
 19 49  1  0  0  0  0 
 19 22  2  0  0  0  0 
 20 37  2  0  0  0  0 
 20 45  1  0  0  0  0 
 21 47  1  0  0  0  0 
 22 50  1  0  0  0  0 
 23 36  1  6  0  0  0 
 23 39  1  0  0  0  0 
 23 35  1  0  0  0  0 
 24 32  1  0  0  0  0 
 25 30  1  0  0  0  0 
 26 31  1  0  0  0  0 
 27 34  2  0  0  0  0 
 28 39  1  0  0  0  0 
 29 41  1  0  0  0  0 
 29 35  1  0  0  0  0 
 29 48  1  1  0  0  0 
 29 51  1  6  0  0  0 
 30 36  1  6  0  0  0 
 30 41  1  0  0  0  0 
 31 40  2  0  0  0  0 
 31 52  1  0  0  0  0 
 34 44  1  0  0  0  0 
 42 56  1  0  0  0  0 
 45 54  1  0  0  0  0 
 46 53  1  0  0  0  0 
 47 55  1  0  0  0  0 
 49 58  2  0  0  0  0 
 50 59  2  0  0  0  0 
 51 57  1  0  0  0  0 
 58 59  1  0  0  0  0 
M  END
> <CDK Fingerprint>
KOnUP+uXN4krteeeF8vfyVX9XjKEpTLf6Q8LJcWm/HJ/VTt1MJZaG+2BoDXqfwbY998/Yj2q02Ly4XRr0fZdw12v3KyudrdDDP0/deui9/kdle3T4en+RCjFtG0oCtpI52Xa70Zve63lbvtvcTzkM7yBHuCz/XvHT+Ndbq9q/vU=

> <ActivityOutcome_CPDBAS_Rat>
inactive

$$$$

  CDK     0721101958

  6  5  0  0  0  0  0  0  0  0999 V2000
    4.6084   -1.9954    0.0000 C   0  0  0  0  0  4  0  0  0  0  0  0
    3.4563   -1.3318    0.0000 C   0  0  0  0  0  4  0  0  0  0  0  0
    3.4563    0.0000    0.0000 O   0  0  0  0  0  2  0  0  0  0  0  0
    2.3042   -1.9954    0.0000 O   0  0  0  0  0  2  0  0  0  0  0  0
    1.1521   -1.3318    0.0000 C   0  0  0  0  0  4  0  0  0  0  0  0
    0.0000   -1.9954    0.0000 C   0  0  0  0  0  4  0  0  0  0  0  0
  1  2  1  0  0  0  0 
  2  3  2  0  0  0  0 
  2  4  1  0  0  0  0 
  4  5  1  0  0  0  0 
  5  6  2  0  0  0  0 
M  END
> <CDK Fingerprint>
AgAAAAAAAAAAAAAAAIAAAACAAAAAAAAAYAAAAAAAAAAAAAAAACASAAAQABAAAAAAAAAAAAAAEAAAAAAAAAAAAAAAAAAAAAAAAAAAAAAAABAAAAAAAAAAQAAAAAAAAAAAAAAAAAAAACAAAFAAAAAAAAAAAAAA

> <ActivityOutcome_CPDBAS_Rat>
active

> <TD50_Rat_mmol>
3.96

$$$$

  CDK     0721101958

  3  2  0  0  0  0  0  0  0  0999 V2000
    2.3030   -0.6656    0.0000 C   0  0  0  0  0  4  0  0  0  0  0  0
    1.1515    0.0000    0.0000 C   0  0  0  0  0  4  0  0  0  0  0  0
    0.0000   -0.6656    0.0000 Br  0  0  0  0  0  1  0  0  0  0  0  0
  1  2  2  0  0  0  0 
  2  3  1  0  0  0  0 
M  END
> <CDK Fingerprint>
AMAQAAAAAAAAAAAAAAAAAAAAAAAQAAAAAAAAAAAAAAAAAAAAAAAAAAAAAQAAAAAAAAAAAAAAAAAAAAAAAAAAAAAAAAAAAAAAAAAAAAAAAAAAAAAAAAAAAAAAAAAAAA==

> <ActivityOutcome_CPDBAS_Rat>
active

> <TD50_Rat_mmol>
0.173

$$$$

  CDK     0721101958

  3  2  0  0  0  0  0  0  0  0999 V2000
    2.3030   -0.6656    0.0000 C   0  0  0  0  0  4  0  0  0  0  0  0
    1.1515    0.0000    0.0000 C   0  0  0  0  0  4  0  0  0  0  0  0
    0.0000   -0.6656    0.0000 Cl  0  0  0  0  0  1  0  0  0  0  0  0
  1  2  2  0  0  0  0 
  2  3  1  0  0  0  0 
M  END
> <CDK Fingerprint>
AMAAAAAAAAAAAAAAAAAAAAAAAAAQAAAAQAAAAAABAAAAAAAAAAAAAAAAAAAAAAAAAAAAAAAAAAAAAAAAAAAAAAAAAAAAAAAAAAAAAAAAAAAAAAAAAAAAAAAAAAAAAA==

> <ActivityOutcome_CPDBAS_Rat>
active

> <TD50_Rat_mmol>
0.0978

$$$$

  CDK     0721101958

  3  2  0  0  0  0  0  0  0  0999 V2000
    0.0000   -1.1533    0.0000 C   0  0  0  0  0  4  0  0  0  0  0  0
    0.6613    0.0000    0.0000 C   0  0  0  0  0  4  0  0  0  0  0  0
    1.9919    0.0000    0.0000 F   0  0  0  0  0  1  0  0  0  0  0  0
  1  2  2  0  0  0  0 
  2  3  1  0  0  0  0 
M  END
> <CDK Fingerprint>
QAAAIAAgAAAAAAAAAAAAAAAAABAAAAAAAAAAAAAAAAAAAAAAAAAAAAAAAAAAAAAAAAAAAAAAAAAAAAAAAAAAAAAAAAAAAAAAAAAAAAAAAAAAAAAAAAAAAAAAAAAA

> <ActivityOutcome_CPDBAS_Rat>
active

> <TD50_Rat_mmol>
0.434

$$$$

  CDK     0721101958

  8  8  0  0  0  0  0  0  0  0999 V2000
    0.0000    0.0000    0.0000 C   0  0  0  0  0  4  0  0  0  0  0  0
    0.6654   -1.1540    0.0000 C   0  0  0  0  0  4  0  0  0  0  0  0
    1.9962   -1.1540    0.0000 C   0  0  0  0  0  4  0  0  0  0  0  0
    2.6569    0.0000    0.0000 C   0  0  0  0  0  4  0  0  0  0  0  0
    3.9877    0.0000    0.0000 C   0  0  0  0  0  4  0  0  0  0  0  0
    4.6531   -1.1540    0.0000 C   0  0  0  0  0  4  0  0  0  0  0  0
    3.9877   -2.3033    0.0000 C   0  0  0  0  0  4  0  0  0  0  0  0
    2.6569   -2.3033    0.0000 C   0  0  0  0  0  4  0  0  0  0  0  0
  1  2  2  0  0  0  0 
  2  3  1  0  0  0  0 
  3  4  1  0  0  0  0 
  3  8  1  0  0  0  0 
  4  5  1  0  0  0  0 
  5  6  1  0  0  0  0 
  6  7  2  0  0  0  0 
  7  8  1  0  0  0  0 
M  END
> <CDK Fingerprint>
QAAAAAAAAAAAAAAAAAAAAAAAAoAEQABAAAAAAAAAAAABAEAAIAAACAAAAAAAAAAgAAAAAAAQAAAAAABAAAAAAAAAABQAAAAAAAAAAAAAAAAAAAAAAAAAAAAAAAAAAAAAAAAAAAAAAAAAAAAAEAAAAAAAAACACAAAAABCEAAAIA==

> <ActivityOutcome_CPDBAS_Rat>
unspecified

$$$$

  CDK     0721101958

  4  3  0  0  0  0  0  0  0  0999 V2000
    1.9950    0.0000    0.0000 C   0  0  0  0  0  4  0  0  0  0  0  0
    1.3292   -1.1518    0.0000 C   0  0  0  0  0  4  0  0  0  0  0  0
    1.9950   -2.3037    0.0000 Cl  0  0  0  0  0  1  0  0  0  0  0  0
    0.0000   -1.1518    0.0000 Cl  0  0  0  0  0  1  0  0  0  0  0  0
  1  2  2  0  0  0  0 
  2  3  1  0  0  0  0 
  2  4  1  0  0  0  0 
M  END
> <CDK Fingerprint>
AMAAAAAAAAAAAAAAAAAAAAAABAAQAAAAQAAAAAABAAAAAAAAAAAAAAAAAAAAAAAAAAAAAAAAAAAAAAAAAAAAAAAAAAAAAAAAAAAAAAAAAAAAAAAAAAAAAAAAAAAAAA==

> <ActivityOutcome_CPDBAS_Rat>
inactive

$$$$

  CDK     0721101958

  4  3  0  0  0  0  0  0  0  0999 V2000
    0.0000   -1.1591    0.0000 C   0  0  0  0  0  4  0  0  0  0  0  0
    1.3277   -1.1591    0.0000 C   0  0  0  0  0  4  0  0  0  0  0  0
    1.9903   -2.3090    0.0000 F   0  0  0  0  0  1  0  0  0  0  0  0
    1.9903    0.0000    0.0000 F   0  0  0  0  0  1  0  0  0  0  0  0
  1  2  2  0  0  0  0 
  2  3  1  0  0  0  0 
  2  4  1  0  0  0  0 
M  END
> <CDK Fingerprint>
EAAAQAAAIAAgAAAAAAAAAAAAAAAAABAAAAAAAAAAAAAAAAAAAAAAAAAAAAAAAAAAAAAAAAAAAAAAAAAAAAAAAAAAAAAAAAAAAAAAAAAAAAAAAAAAAAAAAAAAAAAAAAAA

> <ActivityOutcome_CPDBAS_Rat>
inactive

$$$$

  CDK     0721101958

  8  8  0  0  0  0  0  0  0  0999 V2000
    2.1180   -0.5316    0.0000 C   0  0  0  0  0  4  0  0  0  0  0  0
    3.3374    0.0000    0.0000 C   0  0  0  0  0  4  0  0  0  0  0  0
    2.2615   -1.8607    0.0000 N   0  0  0  0  0  3  0  0  0  0  0  0
    4.2192   -0.9789    0.0000 C   0  0  0  0  0  4  0  0  0  0  0  0
    3.5610   -2.1349    0.0000 C   0  0  0  0  0  4  0  0  0  0  0  0
    4.1053   -3.3543    0.0000 O   0  0  0  0  0  2  0  0  0  0  0  0
    1.2658   -2.7467    0.0000 C   0  0  0  0  0  4  0  0  0  0  0  0
    0.0000   -2.3416    0.0000 C   0  0  0  0  0  4  0  0  0  0  0  0
  1  2  1  0  0  0  0 
  1  3  1  0  0  0  0 
  2  4  1  0  0  0  0 
  3  5  1  0  0  0  0 
  3  7  1  0  0  0  0 
  4  5  1  0  0  0  0 
  5  6  2  0  0  0  0 
  7  8  2  0  0  0  0 
M  END
> <CDK Fingerprint>
EAAAIAAAAgAAAAABAAAAAAAAAABAAAAAAAIAAAAABAAAYAAAAAABAAAAAAABACAAAAACABAAAAAAIMAAAACAAAAAAAAAQAAAAAAAAACAAAAAACAAQAAABAAAAAAAAAAAQAAAAIAAAAAAAAAQAAEAADAAAFAAAAAAAAAAAgAA

> <ActivityOutcome_CPDBAS_Rat>
active

> <TD50_Rat_mmol>
0.108

$$$$

  CDK     0721101958

 18 18  0  0  0  0  0  0  0  0999 V2000
    3.4662   -3.1430    0.0000 C   0  0  0  0  0  4  0  0  0  0  0  0
    2.3108   -3.7975    0.0000 C   0  0  0  0  0  4  0  0  0  0  0  0
    1.1554   -3.1430    0.0000 C   0  0  0  0  0  4  0  0  0  0  0  0
    1.1554   -1.8099    0.0000 C   0  0  0  0  0  4  0  0  0  0  0  0
    2.3108   -1.1393    0.0000 C   0  0  0  0  0  4  0  0  0  0  0  0
    3.4662   -1.8099    0.0000 C   0  0  0  0  0  4  0  0  0  0  0  0
    2.3108   -5.1307    0.0000 O   0  0  0  0  0  2  0  0  0  0  0  0
    0.0000   -3.7975    0.0000 O   0  0  0  0  0  2  0  0  0  0  0  0
    0.0000   -1.1393    0.0000 O   0  0  0  0  0  2  0  0  0  0  0  0
    1.6321    0.0000    0.0000 O   0  0  0  0  0  2  0  0  0  0  0  0
    2.9653    0.0000    0.0000 C   0  0  0  0  0  4  0  0  0  0  0  0
    4.3146    0.0000    0.0000 O   0  0  0  0  0  2  0  0  0  0  0  0
    4.6136   -3.7975    0.0000 N   0  0  0  0  0  3  0  0  0  0  0  0
    5.7690   -3.1430    0.0000 C   0  0  0  0  0  4  0  0  0  0  0  0
    5.7690   -1.8099    0.0000 C   0  0  0  0  0  4  0  0  0  0  0  0
    6.9082   -1.1393    0.0000 O   0  0  0  0  0  2  0  0  0  0  0  0
    6.9082   -3.7975    0.0000 C   0  0  0  0  0  4  0  0  0  0  0  0
    8.0798   -3.1430    0.0000 O   0  0  0  0  0  2  0  0  0  0  0  0
  1 13  1  6  0  0  0 
  1  2  1  0  0  0  0 
  1  6  1  0  0  0  0 
  2  3  1  0  0  0  0 
  2  7  1  6  0  0  0 
  3  4  1  0  0  0  0 
  3  8  1  1  0  0  0 
  4  5  1  0  0  0  0 
  4  9  1  6  0  0  0 
  5 10  1  6  0  0  0 
  5 11  1  1  0  0  0 
  5  6  1  0  0  0  0 
 11 12  1  0  0  0  0 
 13 14  1  0  0  0  0 
 14 15  1  0  0  0  0 
 14 17  1  0  0  0  0 
 15 16  1  0  0  0  0 
 17 18  1  0  0  0  0 
M  END
> <CDK Fingerprint>
EAAAAAAAAgAAAgVFAAAAAAAAAAAAAEAAAAAAAAAAAAEAYAAAAAAAAIAAAAAAGCAAMgAACAAAAABAAMBkAAAAAAAAAAAAQAAAAAAAAAGAAQAAQiAAQAAABBAAAAAAAAAAAEABQQAAAAxIIAAQAAAAAAAAAABxAAgCAAAAAgAA

> <ActivityOutcome_CPDBAS_Rat>
inactive

$$$$

  CDK     0721101958

 20 21  0  0  0  0  0  0  0  0999 V2000
    4.6105    0.0000    0.0000 O   0  0  0  0  0  2  0  0  0  0  0  0
    3.4579   -0.6586    0.0000 C   0  0  0  0  0  4  0  0  0  0  0  0
    3.4579   -1.9886    0.0000 C   0  0  0  0  0  4  0  0  0  0  0  0
    2.3052   -2.6599    0.0000 C   0  0  0  0  0  4  0  0  0  0  0  0
    1.1526   -1.9886    0.0000 C   0  0  0  0  0  4  0  0  0  0  0  0
    1.1526   -0.6586    0.0000 C   0  0  0  0  0  4  0  0  0  0  0  0
    2.3052    0.0000    0.0000 C   0  0  0  0  0  4  0  0  0  0  0  0
    0.0000   -2.6599    0.0000 C   0  0  0  0  0  4  0  0  0  0  0  0
    4.6105   -2.6599    0.0000 N   0  0  0  0  0  3  0  0  0  0  0  0
    5.7631   -1.9886    0.0000 N   0  0  0  0  0  3  0  0  0  0  0  0
    6.9031   -2.6599    0.0000 C   0  0  0  0  0  4  0  0  0  0  0  0
    8.0557   -1.9886    0.0000 C   0  0  0  0  0  4  0  0  0  0  0  0
    9.2083   -2.6599    0.0000 C   0  0  0  0  0  4  0  0  0  0  0  0
    9.2083   -3.9898    0.0000 C   0  0  0  0  0  4  0  0  0  0  0  0
    8.0557   -4.6485    0.0000 C   0  0  0  0  0  4  0  0  0  0  0  0
    6.9031   -3.9898    0.0000 C   0  0  0  0  0  4  0  0  0  0  0  0
   10.3609   -4.6485    0.0000 N   0  0  0  0  0  3  0  0  0  0  0  0
   11.5136   -3.9898    0.0000 C   0  0  0  0  0  4  0  0  0  0  0  0
   11.5136   -2.6599    0.0000 O   0  0  0  0  0  2  0  0  0  0  0  0
   12.6662   -4.6485    0.0000 C   0  0  0  0  0  4  0  0  0  0  0  0
  1  2  1  0  0  0  0 
  2  3  2  0  0  0  0 
  2  7  1  0  0  0  0 
  3  4  1  0  0  0  0 
  3  9  1  0  0  0  0 
  4  5  2  0  0  0  0 
  5  6  1  0  0  0  0 
  5  8  1  0  0  0  0 
  6  7  2  0  0  0  0 
  9 10  2  0  0  0  0 
 10 11  1  0  0  0  0 
 11 12  2  0  0  0  0 
 11 16  1  0  0  0  0 
 12 13  1  0  0  0  0 
 13 14  2  0  0  0  0 
 14 15  1  0  0  0  0 
 14 17  1  0  0  0  0 
 15 16  2  0  0  0  0 
 17 18  1  0  0  0  0 
 18 19  2  0  0  0  0 
 18 20  1  0  0  0  0 
M  END
> <CDK Fingerprint>
QAAAAAABQCAiAAACCAAAAQIAAAABAABAEQBACAAEwBIAAAJpEAAAAAAAAAAAQMCAIAAEIAAAAgBCAAAIqAQAEMAMAAIAAAEBoAAAAQSAAJAAEgAAAAAAAACgAAAIAIEAIABAAEAgIAAgAAAGQIAACABAAACIUAJAAIAQAAADEIA=

> <ActivityOutcome_CPDBAS_Rat>
active

> <TD50_Rat_mmol>
1.41

$$$$

  CDK     0721101958

 44 47  0  0  0  0  0  0  0  0999 V2000
   20.7193   -4.6411    0.0000 C   0  0  0  0  0  4  0  0  0  0  0  0
   20.7193   -5.9672    0.0000 C   0  0  0  0  0  4  0  0  0  0  0  0
   19.5590   -6.6509    0.0000 C   0  0  0  0  0  4  0  0  0  0  0  0
   18.4194   -5.9672    0.0000 C   0  0  0  0  0  4  0  0  0  0  0  0
   17.2592   -6.6509    0.0000 N   0  0  0  0  0  3  0  0  0  0  0  0
   17.2592   -7.9769    0.0000 C   0  0  0  0  0  4  0  0  0  0  0  0
   18.4194   -8.6399    0.0000 O   0  0  0  0  0  2  0  0  0  0  0  0
   16.1196   -8.6399    0.0000 C   0  0  0  0  0  4  0  0  0  0  0  0
   14.9593   -7.9769    0.0000 N   0  0  0  0  0  3  0  0  0  0  0  0
   13.8198   -8.6399    0.0000 N   0  0  0  0  0  3  0  0  0  0  0  0
   12.6595   -7.9769    0.0000 C   0  0  0  0  0  4  0  0  0  0  0  0
   11.5199   -8.6399    0.0000 C   0  0  0  0  0  4  0  0  0  0  0  0
   11.5199   -9.9660    0.0000 Cl  0  0  0  0  0  1  0  0  0  0  0  0
   10.3596   -7.9769    0.0000 C   0  0  0  0  0  4  0  0  0  0  0  0
   10.3596   -6.6509    0.0000 C   0  0  0  0  0  4  0  0  0  0  0  0
    9.1994   -5.9672    0.0000 C   0  0  0  0  0  4  0  0  0  0  0  0
    8.0598   -6.6509    0.0000 C   0  0  0  0  0  4  0  0  0  0  0  0
    6.8995   -5.9672    0.0000 C   0  0  0  0  0  4  0  0  0  0  0  0
    5.7600   -6.6509    0.0000 Cl  0  0  0  0  0  1  0  0  0  0  0  0
    6.8995   -4.6411    0.0000 C   0  0  0  0  0  4  0  0  0  0  0  0
    5.7600   -3.9781    0.0000 N   0  0  0  0  0  3  0  0  0  0  0  0
    5.7600   -2.6521    0.0000 N   0  0  0  0  0  3  0  0  0  0  0  0
    4.5997   -1.9891    0.0000 C   0  0  0  0  0  4  0  0  0  0  0  0
    3.4601   -2.6521    0.0000 C   0  0  0  0  0  4  0  0  0  0  0  0
    2.2998   -1.9891    0.0000 O   0  0  0  0  0  2  0  0  0  0  0  0
    3.4601   -3.9781    0.0000 N   0  0  0  0  0  3  0  0  0  0  0  0
    2.2998   -4.6411    0.0000 C   0  0  0  0  0  4  0  0  0  0  0  0
    2.2998   -5.9672    0.0000 C   0  0  0  0  0  4  0  0  0  0  0  0
    1.1603   -6.6509    0.0000 C   0  0  0  0  0  4  0  0  0  0  0  0
    0.0000   -5.9672    0.0000 C   0  0  0  0  0  4  0  0  0  0  0  0
    1.1603   -3.9781    0.0000 C   0  0  0  0  0  4  0  0  0  0  0  0
    0.0000   -4.6411    0.0000 C   0  0  0  0  0  4  0  0  0  0  0  0
    4.5997   -0.6630    0.0000 C   0  0  0  0  0  4  0  0  0  0  0  0
    5.7600    0.0000    0.0000 O   0  0  0  0  0  2  0  0  0  0  0  0
    3.4601    0.0000    0.0000 C   0  0  0  0  0  4  0  0  0  0  0  0
    9.1994   -4.6411    0.0000 C   0  0  0  0  0  4  0  0  0  0  0  0
    8.0598   -3.9781    0.0000 C   0  0  0  0  0  4  0  0  0  0  0  0
   12.6595   -6.6509    0.0000 C   0  0  0  0  0  4  0  0  0  0  0  0
   11.5199   -5.9672    0.0000 C   0  0  0  0  0  4  0  0  0  0  0  0
   16.1196   -9.9660    0.0000 C   0  0  0  0  0  4  0  0  0  0  0  0
   17.2592  -10.6290    0.0000 O   0  0  0  0  0  2  0  0  0  0  0  0
   14.9593  -10.6290    0.0000 C   0  0  0  0  0  4  0  0  0  0  0  0
   19.5590   -3.9781    0.0000 C   0  0  0  0  0  4  0  0  0  0  0  0
   18.4194   -4.6411    0.0000 C   0  0  0  0  0  4  0  0  0  0  0  0
  1  2  2  0  0  0  0 
  1 43  1  0  0  0  0 
  2  3  1  0  0  0  0 
  3  4  2  0  0  0  0 
  4  5  1  0  0  0  0 
  4 44  1  0  0  0  0 
  5  6  1  0  0  0  0 
  6  7  2  0  0  0  0 
  6  8  1  0  0  0  0 
  8  9  1  0  0  0  0 
  8 40  1  0  0  0  0 
  9 10  2  0  0  0  0 
 10 11  1  0  0  0  0 
 11 12  2  0  0  0  0 
 11 38  1  0  0  0  0 
 12 13  1  0  0  0  0 
 12 14  1  0  0  0  0 
 14 15  2  0  0  0  0 
 15 16  1  0  0  0  0 
 15 39  1  0  0  0  0 
 16 17  2  0  0  0  0 
 16 36  1  0  0  0  0 
 17 18  1  0  0  0  0 
 18 19  1  0  0  0  0 
 18 20  2  0  0  0  0 
 20 21  1  0  0  0  0 
 20 37  1  0  0  0  0 
 21 22  2  0  0  0  0 
 22 23  1  0  0  0  0 
 23 24  1  0  0  0  0 
 23 33  1  0  0  0  0 
 24 25  2  0  0  0  0 
 24 26  1  0  0  0  0 
 26 27  1  0  0  0  0 
 27 28  2  0  0  0  0 
 27 31  1  0  0  0  0 
 28 29  1  0  0  0  0 
 29 30  2  0  0  0  0 
 30 32  1  0  0  0  0 
 31 32  2  0  0  0  0 
 33 34  2  0  0  0  0 
 33 35  1  0  0  0  0 
 36 37  2  0  0  0  0 
 38 39  2  0  0  0  0 
 40 41  2  0  0  0  0 
 40 42  1  0  0  0  0 
 43 44  2  0  0  0  0 
M  END
> <CDK Fingerprint>
AQIAgAEEwiAjDBBAAAEAAMABoQCBEEJRSQEkAAIEyAMgACDoAAAAAAAAAAAgAICgIEAEAAIwBgBgAARmwAQgEcREAAowAQFQIIABAASAANAIAiAwIABABIWhAAAQAIAAoARgBMAgBAkgAEACQBEACYRAAAiA0AJAEIgYAAACGAE=

> <ActivityOutcome_CPDBAS_Rat>
inactive

$$$$

  CDK     0721101958

 48 51  0  0  0  0  0  0  0  0999 V2000
    8.0644   -7.9665    0.0000 Cl  0  0  0  0  0  1  0  0  0  0  0  0
    6.9096   -7.3010    0.0000 C   0  0  0  0  0  4  0  0  0  0  0  0
    5.7547   -7.9665    0.0000 C   0  0  0  0  0  4  0  0  0  0  0  0
    4.5998   -7.3010    0.0000 C   0  0  0  0  0  4  0  0  0  0  0  0
    3.4450   -7.9665    0.0000 Cl  0  0  0  0  0  1  0  0  0  0  0  0
    4.5998   -5.9700    0.0000 C   0  0  0  0  0  4  0  0  0  0  0  0
    3.4450   -5.3045    0.0000 N   0  0  0  0  0  3  0  0  0  0  0  0
    3.4450   -3.9735    0.0000 N   0  0  0  0  0  3  0  0  0  0  0  0
    2.3097   -3.3080    0.0000 C   0  0  0  0  0  4  0  0  0  0  0  0
    2.3097   -1.9770    0.0000 C   0  0  0  0  0  4  0  0  0  0  0  0
    1.1549   -1.3114    0.0000 O   0  0  0  0  0  2  0  0  0  0  0  0
    3.4450   -1.3114    0.0000 N   0  0  0  0  0  3  0  0  0  0  0  0
    4.5998   -1.9770    0.0000 C   0  0  0  0  0  4  0  0  0  0  0  0
    5.7547   -1.3114    0.0000 C   0  0  0  0  0  4  0  0  0  0  0  0
    6.9096   -1.9770    0.0000 C   0  0  0  0  0  4  0  0  0  0  0  0
    6.9096   -3.3080    0.0000 C   0  0  0  0  0  4  0  0  0  0  0  0
    8.0644   -3.9735    0.0000 C   0  0  0  0  0  4  0  0  0  0  0  0
    9.2193   -3.3080    0.0000 C   0  0  0  0  0  4  0  0  0  0  0  0
   10.3545   -3.9735    0.0000 C   0  0  0  0  0  4  0  0  0  0  0  0
   11.5094   -3.3080    0.0000 C   0  0  0  0  0  4  0  0  0  0  0  0
   10.3545   -5.3045    0.0000 C   0  0  0  0  0  4  0  0  0  0  0  0
   11.5094   -5.9700    0.0000 N   0  0  0  0  0  3  0  0  0  0  0  0
   11.5094   -7.3010    0.0000 C   0  0  0  0  0  4  0  0  0  0  0  0
   10.3545   -7.9665    0.0000 O   0  0  0  0  0  2  0  0  0  0  0  0
   12.6643   -7.9665    0.0000 C   0  0  0  0  0  4  0  0  0  0  0  0
   13.8191   -7.3010    0.0000 N   0  0  0  0  0  3  0  0  0  0  0  0
   14.9740   -7.9665    0.0000 N   0  0  0  0  0  3  0  0  0  0  0  0
   16.1288   -7.3010    0.0000 C   0  0  0  0  0  4  0  0  0  0  0  0
   16.1288   -5.9700    0.0000 C   0  0  0  0  0  4  0  0  0  0  0  0
   14.9740   -5.3045    0.0000 Cl  0  0  0  0  0  1  0  0  0  0  0  0
   17.2641   -5.3045    0.0000 C   0  0  0  0  0  4  0  0  0  0  0  0
   18.4189   -5.9700    0.0000 C   0  0  0  0  0  4  0  0  0  0  0  0
   19.5738   -5.3045    0.0000 Cl  0  0  0  0  0  1  0  0  0  0  0  0
   17.2641   -7.9665    0.0000 C   0  0  0  0  0  4  0  0  0  0  0  0
   18.4189   -7.3010    0.0000 C   0  0  0  0  0  4  0  0  0  0  0  0
   12.6643   -9.2976    0.0000 C   0  0  0  0  0  4  0  0  0  0  0  0
   13.8191   -9.9631    0.0000 O   0  0  0  0  0  2  0  0  0  0  0  0
   11.5094   -9.9631    0.0000 C   0  0  0  0  0  4  0  0  0  0  0  0
    8.0644   -5.3045    0.0000 C   0  0  0  0  0  4  0  0  0  0  0  0
    9.2193   -5.9700    0.0000 C   0  0  0  0  0  4  0  0  0  0  0  0
    5.7547    0.0000    0.0000 C   0  0  0  0  0  4  0  0  0  0  0  0
    4.5998   -3.3080    0.0000 C   0  0  0  0  0  4  0  0  0  0  0  0
    5.7547   -3.9735    0.0000 C   0  0  0  0  0  4  0  0  0  0  0  0
    1.1549   -3.9735    0.0000 C   0  0  0  0  0  4  0  0  0  0  0  0
    1.1549   -5.3045    0.0000 O   0  0  0  0  0  2  0  0  0  0  0  0
    0.0000   -3.3080    0.0000 C   0  0  0  0  0  4  0  0  0  0  0  0
    6.9096   -5.9700    0.0000 C   0  0  0  0  0  4  0  0  0  0  0  0
    5.7547   -5.3045    0.0000 C   0  0  0  0  0  4  0  0  0  0  0  0
  1  2  1  0  0  0  0 
  2  3  2  0  0  0  0 
  2 47  1  0  0  0  0 
  3  4  1  0  0  0  0 
  4  5  1  0  0  0  0 
  4  6  2  0  0  0  0 
  6  7  1  0  0  0  0 
  6 48  1  0  0  0  0 
  7  8  2  0  0  0  0 
  8  9  1  0  0  0  0 
  9 10  1  0  0  0  0 
  9 44  1  0  0  0  0 
 10 11  2  0  0  0  0 
 10 12  1  0  0  0  0 
 12 13  1  0  0  0  0 
 13 14  2  0  0  0  0 
 13 42  1  0  0  0  0 
 14 15  1  0  0  0  0 
 14 41  1  0  0  0  0 
 15 16  2  0  0  0  0 
 16 17  1  0  0  0  0 
 16 43  1  0  0  0  0 
 17 18  2  0  0  0  0 
 17 39  1  0  0  0  0 
 18 19  1  0  0  0  0 
 19 20  1  0  0  0  0 
 19 21  2  0  0  0  0 
 21 22  1  0  0  0  0 
 21 40  1  0  0  0  0 
 22 23  1  0  0  0  0 
 23 24  2  0  0  0  0 
 23 25  1  0  0  0  0 
 25 26  1  0  0  0  0 
 25 36  1  0  0  0  0 
 26 27  2  0  0  0  0 
 27 28  1  0  0  0  0 
 28 29  2  0  0  0  0 
 28 34  1  0  0  0  0 
 29 30  1  0  0  0  0 
 29 31  1  0  0  0  0 
 31 32  2  0  0  0  0 
 32 33  1  0  0  0  0 
 32 35  1  0  0  0  0 
 34 35  2  0  0  0  0 
 36 37  2  0  0  0  0 
 36 38  1  0  0  0  0 
 39 40  2  0  0  0  0 
 42 43  2  0  0  0  0 
 44 45  2  0  0  0  0 
 44 46  1  0  0  0  0 
 47 48  2  0  0  0  0 
M  END
> <CDK Fingerprint>
CgiAAATjICMMAGAAAQgARAGhAKEQQ1lJAQQAAgTIAyAAIOhAAAAAAAAAACAAgKDwAAQAAiIGAGAEBGbAJCgRwEQACiABAXAgoAEABICA0AgEIDAgAEAEAaEAABAAgADkBGEEwCAEACIIQBNAEQAJjEAACIDQAsAQiBgEAAIaAQ==

> <ActivityOutcome_CPDBAS_Rat>
inactive

$$$$

  CDK     0721101958

 54 57  0  0  0  0  0  0  0  0999 V2000
   10.3802   -6.0007    0.0000 C   0  0  0  0  0  4  0  0  0  0  0  0
   11.5174   -6.6540    0.0000 C   0  0  0  0  0  4  0  0  0  0  0  0
   12.6788   -6.0007    0.0000 C   0  0  0  0  0  4  0  0  0  0  0  0
   13.8160   -6.6540    0.0000 C   0  0  0  0  0  4  0  0  0  0  0  0
   13.8160   -7.9848    0.0000 C   0  0  0  0  0  4  0  0  0  0  0  0
   12.6788   -8.6622    0.0000 C   0  0  0  0  0  4  0  0  0  0  0  0
   11.5174   -7.9848    0.0000 C   0  0  0  0  0  4  0  0  0  0  0  0
   12.6788   -9.9930    0.0000 Cl  0  0  0  0  0  1  0  0  0  0  0  0
   14.9775   -8.6622    0.0000 N   0  0  0  0  0  3  0  0  0  0  0  0
   16.1389   -7.9848    0.0000 N   0  0  0  0  0  3  0  0  0  0  0  0
   17.2761   -8.6622    0.0000 C   0  0  0  0  0  4  0  0  0  0  0  0
   17.2761   -9.9930    0.0000 C   0  0  0  0  0  4  0  0  0  0  0  0
   16.1389  -10.6463    0.0000 C   0  0  0  0  0  4  0  0  0  0  0  0
   18.4375  -10.6463    0.0000 O   0  0  0  0  0  2  0  0  0  0  0  0
   18.4375   -7.9848    0.0000 C   0  0  0  0  0  4  0  0  0  0  0  0
   19.5989   -8.6622    0.0000 O   0  0  0  0  0  2  0  0  0  0  0  0
   18.4375   -6.6540    0.0000 N   0  0  0  0  0  3  0  0  0  0  0  0
   19.5989   -6.0007    0.0000 C   0  0  0  0  0  4  0  0  0  0  0  0
   19.5989   -4.6699    0.0000 C   0  0  0  0  0  4  0  0  0  0  0  0
   20.7362   -3.9924    0.0000 C   0  0  0  0  0  4  0  0  0  0  0  0
   21.8976   -4.6699    0.0000 C   0  0  0  0  0  4  0  0  0  0  0  0
   21.8976   -6.0007    0.0000 C   0  0  0  0  0  4  0  0  0  0  0  0
   20.7362   -6.6540    0.0000 C   0  0  0  0  0  4  0  0  0  0  0  0
   23.0348   -6.6540    0.0000 O   0  0  0  0  0  2  0  0  0  0  0  0
   24.1962   -6.0007    0.0000 C   0  0  0  0  0  4  0  0  0  0  0  0
   23.0348   -3.9924    0.0000 Cl  0  0  0  0  0  1  0  0  0  0  0  0
   18.4375   -3.9924    0.0000 O   0  0  0  0  0  2  0  0  0  0  0  0
   18.4375   -2.6616    0.0000 C   0  0  0  0  0  4  0  0  0  0  0  0
    9.2188   -6.6540    0.0000 C   0  0  0  0  0  4  0  0  0  0  0  0
    8.0573   -6.0007    0.0000 C   0  0  0  0  0  4  0  0  0  0  0  0
    8.0573   -4.6699    0.0000 C   0  0  0  0  0  4  0  0  0  0  0  0
    9.2188   -3.9924    0.0000 C   0  0  0  0  0  4  0  0  0  0  0  0
   10.3802   -4.6699    0.0000 C   0  0  0  0  0  4  0  0  0  0  0  0
    6.9201   -3.9924    0.0000 N   0  0  0  0  0  3  0  0  0  0  0  0
    6.9201   -2.6616    0.0000 N   0  0  0  0  0  3  0  0  0  0  0  0
    5.7587   -2.0083    0.0000 C   0  0  0  0  0  4  0  0  0  0  0  0
    5.7587   -0.6775    0.0000 C   0  0  0  0  0  4  0  0  0  0  0  0
    6.9201    0.0000    0.0000 C   0  0  0  0  0  4  0  0  0  0  0  0
    4.5973    0.0000    0.0000 O   0  0  0  0  0  2  0  0  0  0  0  0
    4.5973   -2.6616    0.0000 C   0  0  0  0  0  4  0  0  0  0  0  0
    3.4601   -2.0083    0.0000 O   0  0  0  0  0  2  0  0  0  0  0  0
    4.5973   -3.9924    0.0000 N   0  0  0  0  0  3  0  0  0  0  0  0
    3.4601   -4.6699    0.0000 C   0  0  0  0  0  4  0  0  0  0  0  0
    3.4601   -6.0007    0.0000 C   0  0  0  0  0  4  0  0  0  0  0  0
    2.2986   -6.6540    0.0000 C   0  0  0  0  0  4  0  0  0  0  0  0
    1.1614   -6.0007    0.0000 C   0  0  0  0  0  4  0  0  0  0  0  0
    1.1614   -4.6699    0.0000 C   0  0  0  0  0  4  0  0  0  0  0  0
    2.2986   -3.9924    0.0000 C   0  0  0  0  0  4  0  0  0  0  0  0
    2.2986   -2.6616    0.0000 O   0  0  0  0  0  2  0  0  0  0  0  0
    1.1614   -2.0083    0.0000 C   0  0  0  0  0  4  0  0  0  0  0  0
    0.0000   -6.6540    0.0000 Cl  0  0  0  0  0  1  0  0  0  0  0  0
    2.2986   -7.9848    0.0000 O   0  0  0  0  0  2  0  0  0  0  0  0
    1.1614   -8.6622    0.0000 C   0  0  0  0  0  4  0  0  0  0  0  0
    6.9201   -6.6540    0.0000 Cl  0  0  0  0  0  1  0  0  0  0  0  0
  1  2  1  0  0  0  0 
  1 29  2  0  0  0  0 
  1 33  1  0  0  0  0 
  2  3  2  0  0  0  0 
  2  7  1  0  0  0  0 
  3  4  1  0  0  0  0 
  4  5  2  0  0  0  0 
  5  6  1  0  0  0  0 
  5  9  1  0  0  0  0 
  6  7  2  0  0  0  0 
  6  8  1  0  0  0  0 
  9 10  2  0  0  0  0 
 10 11  1  0  0  0  0 
 11 12  1  0  0  0  0 
 11 15  1  0  0  0  0 
 12 13  1  0  0  0  0 
 12 14  2  0  0  0  0 
 15 16  2  0  0  0  0 
 15 17  1  0  0  0  0 
 17 18  1  0  0  0  0 
 18 19  2  0  0  0  0 
 18 23  1  0  0  0  0 
 19 20  1  0  0  0  0 
 19 27  1  0  0  0  0 
 20 21  2  0  0  0  0 
 21 22  1  0  0  0  0 
 21 26  1  0  0  0  0 
 22 23  2  0  0  0  0 
 22 24  1  0  0  0  0 
 24 25  1  0  0  0  0 
 27 28  1  0  0  0  0 
 29 30  1  0  0  0  0 
 30 31  2  0  0  0  0 
 30 54  1  0  0  0  0 
 31 32  1  0  0  0  0 
 31 34  1  0  0  0  0 
 32 33  2  0  0  0  0 
 34 35  2  0  0  0  0 
 35 36  1  0  0  0  0 
 36 37  1  0  0  0  0 
 36 40  1  0  0  0  0 
 37 38  1  0  0  0  0 
 37 39  2  0  0  0  0 
 40 41  2  0  0  0  0 
 40 42  1  0  0  0  0 
 42 43  1  0  0  0  0 
 43 44  2  0  0  0  0 
 43 48  1  0  0  0  0 
 44 45  1  0  0  0  0 
 45 46  2  0  0  0  0 
 45 52  1  0  0  0  0 
 46 47  1  0  0  0  0 
 46 51  1  0  0  0  0 
 47 48  2  0  0  0  0 
 48 49  1  0  0  0  0 
 49 50  1  0  0  0  0 
 52 53  1  0  0  0  0 
M  END
> <CDK Fingerprint>
ARMAkAEExiAjDBRCAREAAMBBoQCBEEZRyQEmAAIkyAMgiDLpAAADAAgBAAAgQJClIEAEIAIwBgBiACTnwAQhGcROEAo0AQHQoIABBASAAPAISygwIAFABI2hAAAQAIAAoARgBMAiJCkgAFESYBEAKZRAAAyA0AJAEIhYEAAiGBE=

> <ActivityOutcome_CPDBAS_Rat>
inactive

$$$$

  CDK     0721101958

 26 31  0  0  0  0  0  0  0  0999 V2000
    9.9698   -4.6072    0.0000 C   0  0  0  0  0  4  0  0  0  0  0  0
   10.6401   -3.4580    0.0000 C   0  0  0  0  0  4  0  0  0  0  0  0
    9.9698   -2.2983    0.0000 C   0  0  0  0  0  4  0  0  0  0  0  0
    8.6504   -2.2983    0.0000 C   0  0  0  0  0  4  0  0  0  0  0  0
    7.9801   -1.1491    0.0000 C   0  0  0  0  0  4  0  0  0  0  0  0
    8.6504    0.0000    0.0000 O   0  0  0  0  0  2  0  0  0  0  0  0
    6.6501   -1.1491    0.0000 C   0  0  0  0  0  4  0  0  0  0  0  0
    5.9904    0.0000    0.0000 C   0  0  0  0  0  4  0  0  0  0  0  0
    4.6604    0.0000    0.0000 C   0  0  0  0  0  4  0  0  0  0  0  0
    8.6504   -4.6072    0.0000 C   0  0  0  0  0  4  0  0  0  0  0  0
    7.9801   -3.4580    0.0000 C   0  0  0  0  0  4  0  0  0  0  0  0
    6.6501   -3.4580    0.0000 C   0  0  0  0  0  4  0  0  0  0  0  0
    5.9904   -4.6072    0.0000 C   0  0  0  0  0  4  0  0  0  0  0  0
    4.6604   -4.6072    0.0000 C   0  0  0  0  0  4  0  0  0  0  0  0
    3.9900   -3.4580    0.0000 C   0  0  0  0  0  4  0  0  0  0  0  0
    2.6600   -3.4580    0.0000 C   0  0  0  0  0  4  0  0  0  0  0  0
    1.9897   -4.6072    0.0000 O   0  0  0  0  0  2  0  0  0  0  0  0
    1.9897   -2.2983    0.0000 C   0  0  0  0  0  4  0  0  0  0  0  0
    0.6597   -2.2983    0.0000 C   0  0  0  0  0  4  0  0  0  0  0  0
    0.0000   -1.1491    0.0000 C   0  0  0  0  0  4  0  0  0  0  0  0
    5.9904   -2.2983    0.0000 C   0  0  0  0  0  4  0  0  0  0  0  0
    4.6604   -2.2983    0.0000 C   0  0  0  0  0  4  0  0  0  0  0  0
    3.9900   -1.1491    0.0000 C   0  0  0  0  0  4  0  0  0  0  0  0
    2.6600   -1.1491    0.0000 C   0  0  0  0  0  4  0  0  0  0  0  0
    1.9897    0.0000    0.0000 C   0  0  0  0  0  4  0  0  0  0  0  0
    0.6597    0.0000    0.0000 C   0  0  0  0  0  4  0  0  0  0  0  0
  1  2  2  0  0  0  0 
  1 10  1  0  0  0  0 
  2  3  1  0  0  0  0 
  3  4  2  0  0  0  0 
  4  5  1  0  0  0  0 
  4 11  1  0  0  0  0 
  5  6  2  0  0  0  0 
  5  7  1  0  0  0  0 
  7  8  2  0  0  0  0 
  7 21  1  0  0  0  0 
  8  9  1  0  0  0  0 
  9 23  2  0  0  0  0 
 10 11  2  0  0  0  0 
 11 12  1  0  0  0  0 
 12 13  2  0  0  0  0 
 12 21  1  0  0  0  0 
 13 14  1  0  0  0  0 
 14 15  2  0  0  0  0 
 15 16  1  0  0  0  0 
 15 22  1  0  0  0  0 
 16 17  2  0  0  0  0 
 16 18  1  0  0  0  0 
 18 19  2  0  0  0  0 
 18 24  1  0  0  0  0 
 19 20  1  0  0  0  0 
 20 26  2  0  0  0  0 
 21 22  2  0  0  0  0 
 22 23  1  0  0  0  0 
 23 24  1  0  0  0  0 
 24 25  2  0  0  0  0 
 25 26  1  0  0  0  0 
M  END
> <CDK Fingerprint>
QgUNACIAAAEABYAAAIAAADAJAgBgAAAAAAAAgAIBCAAYAAB8KAABBgCAAAAKAAIEMEAGCAQAhABAAQACQIAJAgQUCMAAAIBgAAAACAAQKEAIAACAwADAAACAIAAwCIQAIGBJAEAgAAAAAEACYAFFAGAklCiAkAhBWigIAgAIAAA=

> <ActivityOutcome_CPDBAS_Rat>
inactive

$$$$

  CDK     0721101958

 17 17  0  0  0  0  0  0  0  0999 V2000
    2.3090   -1.3523    0.0000 C   0  0  0  0  0  4  0  0  0  0  0  0
    3.4682   -2.0055    0.0000 C   0  0  0  0  0  4  0  0  0  0  0  0
    2.3090    0.0000    0.0000 O   0  0  0  0  0  2  0  0  0  0  0  0
    3.4682   -3.3210    0.0000 N   0  0  0  0  0  3  0  0  0  0  0  0
    4.5997   -3.9741    0.0000 C   0  0  0  0  0  4  0  0  0  0  0  0
    4.5997   -5.3264    0.0000 C   0  0  0  0  0  4  0  0  0  0  0  0
    5.7588   -3.3210    0.0000 C   0  0  0  0  0  4  0  0  0  0  0  0
    5.7588   -5.9888    0.0000 C   0  0  0  0  0  4  0  0  0  0  0  0
    6.9363   -3.9741    0.0000 C   0  0  0  0  0  4  0  0  0  0  0  0
    6.9363   -5.3264    0.0000 C   0  0  0  0  0  4  0  0  0  0  0  0
    3.4682   -5.9888    0.0000 O   0  0  0  0  0  2  0  0  0  0  0  0
    2.3090   -5.3264    0.0000 C   0  0  0  0  0  4  0  0  0  0  0  0
    1.1591   -5.9888    0.0000 C   0  0  0  0  0  4  0  0  0  0  0  0
    0.0000   -5.3264    0.0000 O   0  0  0  0  0  2  0  0  0  0  0  0
    8.0679   -5.9428    0.0000 N   0  0  0  0  0  4  0  0  0  0  0  0
    9.1994   -5.3264    0.0000 O   0  0  0  0  0  1  0  0  0  0  0  0
    8.0679   -7.2951    0.0000 O   0  0  0  0  0  2  0  0  0  0  0  0
  1  2  1  0  0  0  0 
  1  3  1  0  0  0  0 
  2  4  1  0  0  0  0 
  4  5  1  0  0  0  0 
  5  6  2  0  0  0  0 
  5  7  1  0  0  0  0 
  6  8  1  0  0  0  0 
  6 11  1  0  0  0  0 
  7  9  2  0  0  0  0 
  8 10  2  0  0  0  0 
  9 10  1  0  0  0  0 
 10 15  1  0  0  0  0 
 11 12  1  0  0  0  0 
 12 13  1  0  0  0  0 
 13 14  1  0  0  0  0 
 15 16  1  0  0  0  0 
 15 17  2  0  0  0  0 
M  CHG  1  15   1
M  CHG  1  16  -1
M  END
> <CDK Fingerprint>
BAAAABgDBAgiAAAKARAgBAAIAAAAADhAkQABAAAEQIYADBJhgIQCAAgBAAgAAACIICIEIAKAAgBABACIgAQgAEAKEAAAEMAAgAAABACIgJIIAAlAAAgQBIAAEBAIUMAIIAAUAAAgICAAQCACABAAABAAQACAAACAAIAAAgAikIA=

> <ActivityOutcome_CPDBAS_Rat>
inactive

$$$$

  CDK     0721101958

 23 24  0  0  0  0  0  0  0  0999 V2000
    4.6638   -1.3375    0.0000 C   0  0  0  0  0  4  0  0  0  0  0  0
    3.4891   -2.0121    0.0000 C   0  0  0  0  0  4  0  0  0  0  0  0
    3.4891   -3.3263    0.0000 C   0  0  0  0  0  4  0  0  0  0  0  0
    2.3261   -1.3375    0.0000 C   0  0  0  0  0  4  0  0  0  0  0  0
    5.8036   -2.0121    0.0000 O   0  0  0  0  0  2  0  0  0  0  0  0
    1.1863   -2.0121    0.0000 C   0  0  0  0  0  4  0  0  0  0  0  0
    4.6638    0.0000    0.0000 O   0  0  0  0  0  2  0  0  0  0  0  0
    2.3261   -4.0009    0.0000 C   0  0  0  0  0  4  0  0  0  0  0  0
    4.6638   -4.0009    0.0000 C   0  0  0  0  0  4  0  0  0  0  0  0
    1.1863   -3.3030    0.0000 C   0  0  0  0  0  4  0  0  0  0  0  0
   11.6304   -3.9311    0.0000 O   0  0  0  0  0  2  0  0  0  0  0  0
   10.4092   -3.2914    0.0000 C   0  0  0  0  0  4  0  0  0  0  0  0
    5.8036   -3.3030    0.0000 C   0  0  0  0  0  4  0  0  0  0  0  0
    2.3261    0.0000    0.0000 O   0  0  0  0  0  2  0  0  0  0  0  0
    6.9317   -1.3375    0.0000 C   0  0  0  0  0  4  0  0  0  0  0  0
    0.0000   -3.9776    0.0000 O   0  0  0  0  0  2  0  0  0  0  0  0
    9.2810   -1.3491    0.0000 C   0  0  0  0  0  4  0  0  0  0  0  0
   10.4092   -2.0237    0.0000 C   0  0  0  0  0  4  0  0  0  0  0  0
    6.9550   -3.9776    0.0000 C   0  0  0  0  0  4  0  0  0  0  0  0
    9.2810   -3.9776    0.0000 C   0  0  0  0  0  4  0  0  0  0  0  0
    8.1180   -2.0237    0.0000 C   0  0  0  0  0  4  0  0  0  0  0  0
    6.9317   -0.1163    0.0000 C   0  0  0  0  0  4  0  0  0  0  0  0
    8.1180   -3.3030    0.0000 C   0  0  0  0  0  4  0  0  0  0  0  0
  1  2  1  0  0  0  0 
  1  5  1  0  0  0  0 
  1  7  2  0  0  0  0 
  2  3  2  0  0  0  0 
  2  4  1  0  0  0  0 
  3  8  1  0  0  0  0 
  3  9  1  0  0  0  0 
  4  6  2  0  0  0  0 
  4 14  1  0  0  0  0 
  5 15  1  0  0  0  0 
  6 10  1  0  0  0  0 
  8 10  2  0  0  0  0 
  9 13  2  0  0  0  0 
 10 16  1  0  0  0  0 
 11 12  2  0  0  0  0 
 12 18  1  0  0  0  0 
 12 20  1  0  0  0  0 
 13 19  1  0  0  0  0 
 15 21  1  0  0  0  0 
 15 22  1  1  0  0  0 
 17 21  1  0  0  0  0 
 17 18  1  0  0  0  0 
 19 23  1  0  0  0  0 
 20 23  1  0  0  0  0 
M  END
> <CDK Fingerprint>
AsiYAFAAAAAIAoACAUAEABRhAAKABAAAwEAIEIAIQAR5UQppAMQCxKgAAAMkkABQIAYgIAEAECBIAAAwQEAFAAAOggAEIAARAAQAAEIAAYAAEgCAIIGIQAChMIACLoCAIABIAUEhbABBGRACQBgICQCSEAiA0BjAKAEAYAYgACA=

> <ActivityOutcome_CPDBAS_Rat>
inactive

$$$$
