
 OpenBabel04131118512D

  3  2  0  0  0  0  0  0  0  0999 V2000
    2.3030   -0.6656    0.0000 C   0  0  0  0  0  0  0  0  0  0  0  0
    1.1515    0.0000    0.0000 C   0  0  0  0  0  0  0  0  0  0  0  0
    0.0000   -0.6656    0.0000 O   0  0  0  0  0  0  0  0  0  0  0  0
  1  2  1  0  0  0  0
  2  3  2  0  0  0  0
M  END
>  <ActivityOutcome_CPDBAS_Rat>
active

>  <cdk:Formula>
[]

>  <TD50_Rat_mmol>
3.47

>  <net.bioclipse.cdk.fingerprint>
YAAAAAAAAAAAAAAAACAAAAAAAAAAAAAAAAAAAAAAAAAAAAAAAAAAAAAAAAAAAAAAAAAAAAAAAAAAAAAAAAAAQAAAAAAAAAAAAAAAAAAAAAAAABAAAAAAAAAAAAAA

$$$$

 OpenBabel04131118512D

  4  3  0  0  0  0  0  0  0  0999 V2000
    1.9950    0.0000    0.0000 C   0  0  0  0  0  0  0  0  0  0  0  0
    1.3292   -1.1518    0.0000 C   0  0  0  0  0  0  0  0  0  0  0  0
    1.9950   -2.3037    0.0000 O   0  0  0  0  0  0  0  0  0  0  0  0
    0.0000   -1.1518    0.0000 N   0  0  0  0  0  0  0  0  0  0  0  0
  1  2  1  0  0  0  0
  2  3  2  0  0  0  0
  2  4  1  0  0  0  0
M  END
>  <ActivityOutcome_CPDBAS_Rat>
active

>  <cdk:Formula>
[]

>  <TD50_Rat_mmol>
3.05

>  <net.bioclipse.cdk.fingerprint>
AgAAAAAAAAAAAAAAAAAAAAAAAAAAAAAAAAAAYAAAAAAAAAAAAAAAACAAAAAAAAAAAAAAAAAAAAAAAAAAAAAAAAAAAAAAAAAAAAAAAAAAAAAAAAAAAAAAAAAAQAAAAAAAAAAAAAAAAAAAAAAAAFAAAAAAAAAAAgAA

$$$$

 OpenBabel04131118512D

 11 11  0  0  0  0  0  0  0  0999 V2000
    3.8512   -1.8702    0.0000 C   0  0  0  0  0  0  0  0  0  0  0  0
    2.9346   -2.8163    0.0000 C   0  0  0  0  0  0  0  0  0  0  0  0
    3.5407   -0.5987    0.0000 C   0  0  0  0  0  0  0  0  0  0  0  0
    5.1522   -2.2102    0.0000 N   0  0  0  0  0  0  0  0  0  0  0  0
    1.6410   -2.4689    0.0000 C   0  0  0  0  0  0  0  0  0  0  0  0
    2.2397   -0.2587    0.0000 C   0  0  0  0  0  0  0  0  0  0  0  0
    6.0983   -1.2862    0.0000 C   0  0  0  0  0  0  0  0  0  0  0  0
    1.2936   -1.2049    0.0000 C   0  0  0  0  0  0  0  0  0  0  0  0
    5.7583    0.0000    0.0000 C   0  0  0  0  0  0  0  0  0  0  0  0
    7.3919   -1.6114    0.0000 O   0  0  0  0  0  0  0  0  0  0  0  0
    0.0000   -0.8575    0.0000 O   0  0  0  0  0  0  0  0  0  0  0  0
  1  2  2  0  0  0  0
  1  3  1  0  0  0  0
  1  4  1  0  0  0  0
  2  5  1  0  0  0  0
  3  6  2  0  0  0  0
  4  7  1  0  0  0  0
  5  8  2  0  0  0  0
  6  8  1  0  0  0  0
  7  9  1  0  0  0  0
  7 10  2  0  0  0  0
  8 11  1  0  0  0  0
M  END
>  <ActivityOutcome_CPDBAS_Rat>
active

>  <cdk:Formula>
[]

>  <TD50_Rat_mmol>
3.27

>  <net.bioclipse.cdk.fingerprint>
ICIAAAIAAAAAAAAAAAAAAEABAAAAAATAAgAAAmEIAAAAAAAAAAAAAIAgAAQgAAACAEAAAACABAAAwAAAAAAAAQAAAAAABIAAkAABAAAAAAAAAAAAAAAAAAAgAEAAACAgAAAAAAIAAAAAAAAAAIhQAEAAgBAAAAIQAA==

$$$$

 OpenBabel04131118512D

 18 19  0  0  0  0  0  0  0  0999 V2000
   11.1272   -2.0879    0.0000 C   0  0  0  0  0  0  0  0  0  0  0  0
   11.1272   -0.7492    0.0000 C   0  0  0  0  0  0  0  0  0  0  0  0
   12.2816   -2.7511    0.0000 C   0  0  0  0  0  0  0  0  0  0  0  0
    9.9727   -2.7511    0.0000 N   0  0  0  0  0  0  0  0  0  0  0  0
    8.8182   -2.0879    0.0000 N   0  0  0  0  0  0  0  0  0  0  0  0
    7.6760   -2.7511    0.0000 C   0  0  0  0  0  0  0  0  0  0  0  0
    7.5286   -4.0652    0.0000 N   0  0  0  0  0  0  0  0  0  0  0  0
    6.2268   -4.3477    0.0000 C   0  0  0  0  0  0  0  0  0  0  0  0
    5.5636   -3.1932    0.0000 C   0  0  0  0  0  0  0  0  0  0  0  0
    6.4601   -2.2107    0.0000 S   0  0  0  0  0  0  0  0  0  0  0  0
    4.2372   -3.0581    0.0000 C   0  0  0  0  0  0  0  0  0  0  0  0
    3.3529   -4.0407    0.0000 C   0  0  0  0  0  0  0  0  0  0  0  0
    2.1370   -3.5003    0.0000 C   0  0  0  0  0  0  0  0  0  0  0  0
    2.2721   -2.1861    0.0000 C   0  0  0  0  0  0  0  0  0  0  0  0
    3.5740   -1.9037    0.0000 O   0  0  0  0  0  0  0  0  0  0  0  0
    1.2896   -1.2896    0.0000 N   0  3  0  0  0  0  0  0  0  0  0  0
    0.0000   -1.6335    0.0000 O   0  0  0  0  0  0  0  0  0  0  0  0
    1.6335    0.0000    0.0000 O   0  5  0  0  0  0  0  0  0  0  0  0
  1  2  1  0  0  0  0
  1  3  1  0  0  0  0
  1  4  2  0  0  0  0
  4  5  1  0  0  0  0
  5  6  1  0  0  0  0
  6  7  2  0  0  0  0
  6 10  1  0  0  0  0
  7  8  1  0  0  0  0
  8  9  2  0  0  0  0
  9 10  1  0  0  0  0
  9 11  1  0  0  0  0
 11 12  2  0  0  0  0
 11 15  1  0  0  0  0
 12 13  1  0  0  0  0
 13 14  2  0  0  0  0
 14 15  1  0  0  0  0
 14 16  1  0  0  0  0
 16 17  2  0  0  0  0
 16 18  1  0  0  0  0
M  CHG  2  16   1  18  -1
M  END
>  <ActivityOutcome_CPDBAS_Rat>
active

>  <cdk:Formula>
[]

>  <TD50_Rat_mmol>
0.0227

>  <net.bioclipse.cdk.fingerprint>
IQACAlCCQyVwANBIFIDEAIFLJEQAETrBUQkMQOSFVAxAAAVgABUAgBGaYAgCQgKCJKjYAAaAAAZAgqwAQASAMAEYAhAEBAAAAAEAwEwMgARggC9BEAEkAEGYBiAiEYiNcgpFYRQgBAmQAHotQJAEAwAimGECgCiQOAwIQUKDDwA=

$$$$

 OpenBabel04131118512D

  5  4  0  0  0  0  0  0  0  0999 V2000
    3.4567   -1.9945    0.0000 C   0  0  0  0  0  0  0  0  0  0  0  0
    2.3056   -1.3308    0.0000 C   0  0  0  0  0  0  0  0  0  0  0  0
    1.1511   -1.9945    0.0000 N   0  0  0  0  0  0  0  0  0  0  0  0
    0.0000   -1.3308    0.0000 O   0  0  0  0  0  0  0  0  0  0  0  0
    2.3056    0.0000    0.0000 C   0  0  0  0  0  0  0  0  0  0  0  0
  1  2  1  0  0  0  0
  2  3  2  0  0  0  0
  2  5  1  0  0  0  0
  3  4  1  0  0  0  0
M  END
>  <ActivityOutcome_CPDBAS_Rat>
active

>  <cdk:Formula>
[]

>  <TD50_Rat_mmol>
0.166

>  <net.bioclipse.cdk.fingerprint>
QAAAAAAIAAAAAAAAAAAAAAAAAAAAAAAAAAAAAABgAAAAAAAAAAAAAAAAICAAAAAAAAAAAAAAQAAAAAAAAAAAAAAAAAAAAAAAAAAAAAEAAAAAAAAAAAAAAAAAAAAAAAAAAAAAAAAAAAAAgAAAAAAAAAAAAAAAAAAAAAA=

$$$$

 OpenBabel04131118512D

 16 17  0  0  0  0  0  0  0  0999 V2000
    1.1551   -0.6716    0.0000 O   0  0  0  0  0  0  0  0  0  0  0  0
    6.9126   -2.6594    0.0000 C   0  0  0  0  0  0  0  0  0  0  0  0
    6.9126   -3.9935    0.0000 C   0  0  0  0  0  0  0  0  0  0  0  0
    8.1751   -2.2475    0.0000 O   0  0  0  0  0  0  0  0  0  0  0  0
    8.1751   -4.4054    0.0000 O   0  0  0  0  0  0  0  0  0  0  0  0
    8.9541   -3.3309    0.0000 C   0  0  0  0  0  0  0  0  0  0  0  0
    5.7575   -1.9968    0.0000 C   0  0  0  0  0  0  0  0  0  0  0  0
    5.7575   -4.6561    0.0000 C   0  0  0  0  0  0  0  0  0  0  0  0
    3.4563   -0.6716    0.0000 C   0  0  0  0  0  0  0  0  0  0  0  0
    2.3012    0.0000    0.0000 C   0  0  0  0  0  0  0  0  0  0  0  0
    4.6024   -2.6594    0.0000 C   0  0  0  0  0  0  0  0  0  0  0  0
    4.6024   -3.9935    0.0000 C   0  0  0  0  0  0  0  0  0  0  0  0
    3.4563   -1.9968    0.0000 C   0  0  0  0  0  0  0  0  0  0  0  0
    2.3012   -2.6594    0.0000 O   0  0  0  0  0  0  0  0  0  0  0  0
    1.1551   -1.9968    0.0000 C   0  0  0  0  0  0  0  0  0  0  0  0
    0.0000   -2.6594    0.0000 C   0  0  0  0  0  0  0  0  0  0  0  0
  1 15  2  0  0  0  0
  2  3  2  0  0  0  0
  2  4  1  0  0  0  0
  2  7  1  0  0  0  0
  3  5  1  0  0  0  0
  3  8  1  0  0  0  0
  4  6  1  0  0  0  0
  5  6  1  0  0  0  0
  7 11  2  0  0  0  0
  8 12  2  0  0  0  0
  9 13  1  0  0  0  0
  9 10  2  0  0  0  0
 11 12  1  0  0  0  0
 11 13  1  0  0  0  0
 13 14  1  0  0  0  0
 14 15  1  0  0  0  0
 15 16  1  0  0  0  0
M  END
>  <ActivityOutcome_CPDBAS_Rat>
active

>  <cdk:Formula>
[]

>  <TD50_Rat_mmol>
0.114

>  <net.bioclipse.cdk.fingerprint>
AkACAAgAAAVACgCCAAAAAAABAAIoBQAAgBACAMAAAgiIJAphEIAEgIAACAAAAABAIAbkIEAQECBIABAgQAAAAAAOGAAACABCAgACBAIAAIAAEgAAAAAAAACUEUAAIICIIIBKwEAgJGADEAACTAgECoOQFACAUCAAgBGgISAiIAA=

$$$$

 OpenBabel04131118512D

 16 17  0  0  0  0  0  0  0  0999 V2000
    1.9954    0.0000    0.0000 C   0  0  0  0  0  0  0  0  0  0  0  0
    1.3269   -1.1473    0.0000 C   0  0  0  0  0  0  0  0  0  0  0  0
    0.0000   -1.1473    0.0000 O   0  0  0  0  0  0  0  0  0  0  0  0
    1.9954   -2.3046    0.0000 N   0  0  0  0  0  0  0  0  0  0  0  0
    3.3223   -2.3046    0.0000 C   0  0  0  0  0  0  0  0  0  0  0  0
    3.9907   -1.1473    0.0000 C   0  0  0  0  0  0  0  0  0  0  0  0
    5.3176   -1.1473    0.0000 C   0  0  0  0  0  0  0  0  0  0  0  0
    5.9861   -2.3046    0.0000 C   0  0  0  0  0  0  0  0  0  0  0  0
    5.3176   -3.4520    0.0000 C   0  0  0  0  0  0  0  0  0  0  0  0
    3.9907   -3.4520    0.0000 C   0  0  0  0  0  0  0  0  0  0  0  0
    7.3130   -2.3046    0.0000 C   0  0  0  0  0  0  0  0  0  0  0  0
    7.9814   -1.1473    0.0000 C   0  0  0  0  0  0  0  0  0  0  0  0
    9.3083   -1.1473    0.0000 C   0  0  0  0  0  0  0  0  0  0  0  0
    9.9768   -2.3046    0.0000 C   0  0  0  0  0  0  0  0  0  0  0  0
    9.3083   -3.4520    0.0000 C   0  0  0  0  0  0  0  0  0  0  0  0
    7.9814   -3.4520    0.0000 C   0  0  0  0  0  0  0  0  0  0  0  0
  1  2  1  0  0  0  0
  2  3  2  0  0  0  0
  2  4  1  0  0  0  0
  4  5  1  0  0  0  0
  5  6  2  0  0  0  0
  5 10  1  0  0  0  0
  6  7  1  0  0  0  0
  7  8  2  0  0  0  0
  8  9  1  0  0  0  0
  8 11  1  0  0  0  0
  9 10  2  0  0  0  0
 11 12  2  0  0  0  0
 11 16  1  0  0  0  0
 12 13  1  0  0  0  0
 13 14  2  0  0  0  0
 14 15  1  0  0  0  0
 15 16  2  0  0  0  0
M  END
>  <ActivityOutcome_CPDBAS_Rat>
active

>  <cdk:Formula>
[]

>  <TD50_Rat_mmol>
0.00559

>  <net.bioclipse.cdk.fingerprint>
ISAiBAAAAAAIAAAAAAAAEABBQQAAAAIEwAMAAABgAAAAAAAAAAAAAACAoAAEAAAABgBAAAAAgAQIAMAEAAAAAAEAAAAAAASAANAAAAAAAAAAAACAAAAAAIAAIABAAEAgAAAAAEACQAEAAAgAAAiA0ADAEIgIAAACEAA=

$$$$

 OpenBabel04131118512D

 17 19  0  0  0  0  0  0  0  0999 V2000
    5.7640   -1.7698    0.0000 C   0  0  0  0  0  0  0  0  0  0  0  0
    7.0213   -1.3540    0.0000 C   0  0  0  0  0  0  0  0  0  0  0  0
    7.8046   -2.4275    0.0000 C   0  0  0  0  0  0  0  0  0  0  0  0
    9.1296   -2.2921    0.0000 C   0  0  0  0  0  0  0  0  0  0  0  0
    9.6712   -1.0735    0.0000 C   0  0  0  0  0  0  0  0  0  0  0  0
    8.8878    0.0000    0.0000 C   0  0  0  0  0  0  0  0  0  0  0  0
    7.5629   -0.1451    0.0000 C   0  0  0  0  0  0  0  0  0  0  0  0
    7.0213   -3.5106    0.0000 C   0  0  0  0  0  0  0  0  0  0  0  0
    5.7640   -3.0948    0.0000 C   0  0  0  0  0  0  0  0  0  0  0  0
    4.6035   -3.7621    0.0000 C   0  0  0  0  0  0  0  0  0  0  0  0
    3.4526   -3.0948    0.0000 C   0  0  0  0  0  0  0  0  0  0  0  0
    3.4526   -1.7698    0.0000 C   0  0  0  0  0  0  0  0  0  0  0  0
    4.6035   -1.1025    0.0000 C   0  0  0  0  0  0  0  0  0  0  0  0
    2.3017   -3.7621    0.0000 N   0  0  0  0  0  0  0  0  0  0  0  0
    1.1509   -3.0948    0.0000 C   0  0  0  0  0  0  0  0  0  0  0  0
    0.0000   -3.7621    0.0000 C   0  0  0  0  0  0  0  0  0  0  0  0
    1.1509   -1.7698    0.0000 O   0  0  0  0  0  0  0  0  0  0  0  0
  1  2  1  0  0  0  0
  1  9  1  0  0  0  0
  1 13  2  0  0  0  0
  2  3  2  0  0  0  0
  2  7  1  0  0  0  0
  3  4  1  0  0  0  0
  3  8  1  0  0  0  0
  4  5  2  0  0  0  0
  5  6  1  0  0  0  0
  6  7  2  0  0  0  0
  8  9  1  0  0  0  0
  9 10  2  0  0  0  0
 10 11  1  0  0  0  0
 11 12  2  0  0  0  0
 11 14  1  0  0  0  0
 12 13  1  0  0  0  0
 14 15  1  0  0  0  0
 15 16  1  0  0  0  0
 15 17  2  0  0  0  0
M  END
>  <ActivityOutcome_CPDBAS_Rat>
active

>  <cdk:Formula>
[]

>  <TD50_Rat_mmol>
0.00546

>  <net.bioclipse.cdk.fingerprint>
AIQAAAApICIFAAAAgCgBMAkAIAIQQEFBAAAAAgzAAwgAAGEgQRAAAIAAAAYAAoCgAAQAAgCGAEABAADABAkAwAUIwACAAUAAAAAARIAg0AgAEADAAIAAAIAgAgAIgAAgQEkAQCAAQAAAQAJgAQ0ACAQUCoDQAsEQiAgEAAIQAA==

$$$$

 OpenBabel04131118512D

 24 27  0  0  0  0  0  0  0  0999 V2000
    6.9100   -5.0061    0.0000 C   0  0  0  0  0  0  0  0  0  0  0  0
    5.7600   -5.6730    0.0000 N   0  0  0  0  0  0  0  0  0  0  0  0
    4.6099   -5.0061    0.0000 C   0  0  0  0  0  0  0  0  0  0  0  0
    3.4598   -5.6730    0.0000 C   0  0  0  0  0  0  0  0  0  0  0  0
    2.3001   -5.0061    0.0000 C   0  0  0  0  0  0  0  0  0  0  0  0
    1.1501   -5.6730    0.0000 O   0  0  0  0  0  0  0  0  0  0  0  0
    0.0000   -5.0061    0.0000 C   0  0  0  0  0  0  0  0  0  0  0  0
    2.3001   -3.6821    0.0000 C   0  0  0  0  0  0  0  0  0  0  0  0
    3.4598   -3.0153    0.0000 C   0  0  0  0  0  0  0  0  0  0  0  0
    4.6099   -3.6821    0.0000 C   0  0  0  0  0  0  0  0  0  0  0  0
    5.7600   -3.0153    0.0000 C   0  0  0  0  0  0  0  0  0  0  0  0
    5.7600   -1.6816    0.0000 C   0  0  0  0  0  0  0  0  0  0  0  0
    4.6099   -1.0148    0.0000 C   0  0  0  0  0  0  0  0  0  0  0  0
    3.4598   -1.6816    0.0000 O   0  0  0  0  0  0  0  0  0  0  0  0
    3.7498    0.0000    0.0000 C   0  0  0  0  0  0  0  0  0  0  0  0
    5.4604    0.0000    0.0000 C   0  0  0  0  0  0  0  0  0  0  0  0
    3.4598   -7.0067    0.0000 C   0  0  0  0  0  0  0  0  0  0  0  0
    4.6099   -7.6735    0.0000 C   0  0  0  0  0  0  0  0  0  0  0  0
    5.7600   -7.0067    0.0000 C   0  0  0  0  0  0  0  0  0  0  0  0
    6.9100   -7.6735    0.0000 C   0  0  0  0  0  0  0  0  0  0  0  0
    6.9100   -8.9975    0.0000 C   0  0  0  0  0  0  0  0  0  0  0  0
    5.7600   -9.6644    0.0000 C   0  0  0  0  0  0  0  0  0  0  0  0
    4.6099   -8.9975    0.0000 C   0  0  0  0  0  0  0  0  0  0  0  0
    2.3001   -7.6735    0.0000 O   0  0  0  0  0  0  0  0  0  0  0  0
  1  2  1  0  0  0  0
  2  3  1  0  0  0  0
  2 19  1  0  0  0  0
  3  4  2  0  0  0  0
  3 10  1  0  0  0  0
  4  5  1  0  0  0  0
  4 17  1  0  0  0  0
  5  6  1  0  0  0  0
  5  8  2  0  0  0  0
  6  7  1  0  0  0  0
  8  9  1  0  0  0  0
  9 10  2  0  0  0  0
  9 14  1  0  0  0  0
 10 11  1  0  0  0  0
 11 12  2  0  0  0  0
 12 13  1  0  0  0  0
 13 14  1  0  0  0  0
 13 15  1  0  0  0  0
 13 16  1  0  0  0  0
 17 18  1  0  0  0  0
 17 24  2  0  0  0  0
 18 19  2  0  0  0  0
 18 23  1  0  0  0  0
 19 20  1  0  0  0  0
 20 21  2  0  0  0  0
 21 22  1  0  0  0  0
 22 23  2  0  0  0  0
M  END
>  <ActivityOutcome_CPDBAS_Rat>
active

>  <cdk:Formula>
[]

>  <TD50_Rat_mmol>
0.00157

>  <net.bioclipse.cdk.fingerprint>
GEAAIxYiwIUiSpEGAJgIBJKBBBAGJBpAkAQaAEQuaIZvAo5pCEAiBwqACUhCRIAQcAYkIASSHgBCASAIwBQkAlgOGAAErwARmRAApAIQIoAIMAhQEAAICECAMNgAQoAAIatTaEEgaDQQAREuTAIMAKE6NCCjEDhFMCACZkAiEgA=

$$$$

 OpenBabel04131118512D

  5  4  0  0  0  0  0  0  0  0999 V2000
    3.4567   -1.9945    0.0000 N   0  0  0  0  0  0  0  0  0  0  0  0
    2.3056   -1.3308    0.0000 C   0  0  0  0  0  0  0  0  0  0  0  0
    2.3056    0.0000    0.0000 O   0  0  0  0  0  0  0  0  0  0  0  0
    1.1511   -1.9945    0.0000 C   0  0  0  0  0  0  0  0  0  0  0  0
    0.0000   -1.3308    0.0000 C   0  0  0  0  0  0  0  0  0  0  0  0
  1  2  1  0  0  0  0
  2  3  2  0  0  0  0
  2  4  1  0  0  0  0
  4  5  2  0  0  0  0
M  END
>  <ActivityOutcome_CPDBAS_Rat>
active

>  <cdk:Formula>
[]

>  <TD50_Rat_mmol>
0.0528

>  <net.bioclipse.cdk.fingerprint>
QAAAAAAAAAIAAAAAAAAAAAAAAAAAAAAAAAAAAAAAAAIAAGAAAAAAAAAAAAAAAAAgAAAAAAAQAAAAAAAAAAAAAAAAAAAAAAAAAAAAAAAAAAAAAAAAAAAAAAAAAAAAAAAAAEAAAAAAAAAAAAAAAAAAAAAAAABwAAAAAAAAAAIAAA==

$$$$

 OpenBabel04131118512D

  4  3  0  0  0  0  0  0  0  0999 V2000
    0.0000    0.0000    0.0000 C   0  0  0  0  0  0  0  0  0  0  0  0
    0.6652   -1.1508    0.0000 C   0  0  0  0  0  0  0  0  0  0  0  0
    1.9956   -1.1508    0.0000 C   0  0  0  0  0  0  0  0  0  0  0  0
    3.3260   -1.1508    0.0000 N   0  0  0  0  0  0  0  0  0  0  0  0
  1  2  2  0  0  0  0
  2  3  1  0  0  0  0
  3  4  3  0  0  0  0
M  END
>  <ActivityOutcome_CPDBAS_Rat>
active

>  <cdk:Formula>
[]

>  <TD50_Rat_mmol>
0.318

>  <net.bioclipse.cdk.fingerprint>
QAAAAAAAAAAAAAAAAAAAAAAAAAAAAAAAAAAAAAAAAAAAAGAAAAAAAAAAAAAAAAAgAAAAAAAQAAAAAAAAAAAAAAAAAAAAAAAAAAAAAAAAAAAAAAAAAAAAAAAAAAAAAAAQAAAAAAAAAAAAAAAAAAgAAAAAAAAAACAAAAAAAAAAAA==

$$$$

 OpenBabel04131118512D

 90 96  0  0  0  0  0  0  0  0999 V2000
   11.5534  -11.4484    0.0000 C   0  0  0  0  0  0  0  0  0  0  0  0
   11.5534  -12.6457    0.0000 C   0  0  0  0  0  0  0  0  0  0  0  0
   12.5827  -10.8602    0.0000 C   0  0  0  0  0  0  0  0  0  0  0  0
   10.5031  -10.8602    0.0000 N   0  0  0  0  0  0  0  0  0  0  0  0
   10.5031  -13.2549    0.0000 O   0  0  0  0  0  0  0  0  0  0  0  0
   12.5827  -13.2549    0.0000 C   0  0  0  0  0  0  0  0  0  0  0  0
   12.5827   -9.6629    0.0000 C   0  0  0  0  0  0  0  0  0  0  0  0
   13.6330  -11.4484    0.0000 C   0  0  0  0  0  0  0  0  0  0  0  0
    9.4738  -11.4484    0.0000 C   0  0  0  0  0  0  0  0  0  0  0  0
    9.4738  -12.6457    0.0000 C   0  0  0  0  0  0  0  0  0  0  0  0
   13.6330  -12.6457    0.0000 C   0  0  0  0  0  0  0  0  0  0  0  0
   12.5827  -14.4523    0.0000 C   0  0  0  0  0  0  0  0  0  0  0  0
   13.6330   -9.0537    0.0000 N   0  0  0  0  0  0  0  0  0  0  0  0
   11.5534   -9.0537    0.0000 O   0  0  0  0  0  0  0  0  0  0  0  0
   14.6623  -10.8602    0.0000 N   0  0  0  0  0  0  0  0  0  0  0  0
    8.4235  -10.8602    0.0000 C   0  0  0  0  0  0  0  0  0  0  0  0
    8.4235  -13.2549    0.0000 C   0  0  0  0  0  0  0  0  0  0  0  0
   14.6623  -13.2549    0.0000 O   0  0  0  0  0  0  0  0  0  0  0  0
    8.4235   -9.6629    0.0000 C   0  0  0  0  0  0  0  0  0  0  0  0
    7.3942  -11.4484    0.0000 C   0  0  0  0  0  0  0  0  0  0  0  0
    7.3942  -12.6457    0.0000 C   0  0  0  0  0  0  0  0  0  0  0  0
    8.4235  -14.4523    0.0000 C   0  0  0  0  0  0  0  0  0  0  0  0
    7.3942   -9.0537    0.0000 N   0  0  0  0  0  0  0  0  0  0  0  0
    9.4738   -9.0537    0.0000 O   0  0  0  0  0  0  0  0  0  0  0  0
   13.6330   -7.7933    0.0000 C   0  0  2  0  0  0  0  0  0  0  0  0
   12.5407   -7.1631    0.0000 C   0  0  0  0  0  0  0  0  0  0  0  0
   14.7043   -7.1631    0.0000 C   0  0  1  0  0  0  0  0  0  0  0  0
   12.5407   -2.2897    0.0000 N   0  0  0  0  0  0  0  0  0  0  0  0
   11.4694   -7.7933    0.0000 O   0  0  0  0  0  0  0  0  0  0  0  0
   14.7043   -5.9238    0.0000 C   0  0  0  0  0  0  0  0  0  0  0  0
   15.8177   -7.7723    0.0000 O   0  0  0  0  0  0  0  0  0  0  0  0
   16.8470   -7.1841    0.0000 C   0  0  0  0  0  0  0  0  0  0  0  0
   16.8470   -5.9868    0.0000 O   0  0  0  0  0  0  0  0  0  0  0  0
   13.5280   -1.8065    0.0000 C   0  0  2  0  0  0  0  0  0  0  0  0
   13.5280   -0.6092    0.0000 C   0  0  0  0  0  0  0  0  0  0  0  0
   15.6706   -2.3947    0.0000 C   0  0  0  0  0  0  0  0  0  0  0  0
   17.9603   -1.4704    0.0000 N   0  0  0  0  0  0  0  0  0  0  0  0
   15.6706   -3.5921    0.0000 O   0  0  0  0  0  0  0  0  0  0  0  0
   18.3384   -0.3151    0.0000 C   0  0  0  0  0  0  0  0  0  0  0  0
   18.9266   -2.1846    0.0000 C   0  0  0  0  0  0  0  0  0  0  0  0
   19.5358   -0.3151    0.0000 C   0  0  0  0  0  0  0  0  0  0  0  0
   19.9139   -1.4704    0.0000 C   0  0  0  0  0  0  0  0  0  0  0  0
   12.4777    0.0000    0.0000 C   0  0  0  0  0  0  0  0  0  0  0  0
   14.5573    0.0000    0.0000 C   0  0  0  0  0  0  0  0  0  0  0  0
   18.9266   -3.5711    0.0000 C   0  0  0  0  0  0  0  0  0  0  0  0
   17.9183   -4.1802    0.0000 O   0  0  0  0  0  0  0  0  0  0  0  0
   19.9769   -4.1802    0.0000 N   0  0  0  0  0  0  0  0  0  0  0  0
   19.9769   -5.3776    0.0000 C   0  0  0  0  0  0  0  0  0  0  0  0
   21.0062   -3.5711    0.0000 C   0  0  0  0  0  0  0  0  0  0  0  0
   18.9266   -5.9868    0.0000 C   0  0  0  0  0  0  0  0  0  0  0  0
   17.9183   -5.3776    0.0000 O   0  0  0  0  0  0  0  0  0  0  0  0
   18.9266   -7.1841    0.0000 N   0  0  0  0  0  0  0  0  0  0  0  0
   19.9769   -7.7723    0.0000 C   0  0  0  0  0  0  0  0  0  0  0  0
   17.9183   -7.7723    0.0000 C   0  0  1  0  0  0  0  0  0  0  0  0
   17.9183   -8.9697    0.0000 C   0  0  0  0  0  0  0  0  0  0  0  0
   18.9266   -9.5788    0.0000 C   0  0  0  0  0  0  0  0  0  0  0  0
   16.8470   -9.5788    0.0000 C   0  0  0  0  0  0  0  0  0  0  0  0
    7.3942   -7.7933    0.0000 C   0  0  2  0  0  0  0  0  0  0  0  0
    8.4865   -7.1631    0.0000 C   0  0  0  0  0  0  0  0  0  0  0  0
    6.3229   -7.1631    0.0000 C   0  0  1  0  0  0  0  0  0  0  0  0
    8.4865   -2.2897    0.0000 N   0  0  0  0  0  0  0  0  0  0  0  0
    9.5578   -7.7933    0.0000 O   0  0  0  0  0  0  0  0  0  0  0  0
    6.3229   -5.9238    0.0000 C   0  0  0  0  0  0  0  0  0  0  0  0
    5.1885   -7.7723    0.0000 O   0  0  0  0  0  0  0  0  0  0  0  0
    4.1592   -7.1841    0.0000 C   0  0  0  0  0  0  0  0  0  0  0  0
    4.1592   -5.9868    0.0000 O   0  0  0  0  0  0  0  0  0  0  0  0
    7.4992   -1.8065    0.0000 C   0  0  2  0  0  0  0  0  0  0  0  0
    7.4992   -0.6092    0.0000 C   0  0  0  0  0  0  0  0  0  0  0  0
    5.3566   -2.3947    0.0000 C   0  0  0  0  0  0  0  0  0  0  0  0
    3.0459   -1.4704    0.0000 N   0  0  0  0  0  0  0  0  0  0  0  0
    5.3566   -3.5921    0.0000 O   0  0  0  0  0  0  0  0  0  0  0  0
    2.6678   -0.3151    0.0000 C   0  0  0  0  0  0  0  0  0  0  0  0
    2.0796   -2.1846    0.0000 C   0  0  0  0  0  0  0  0  0  0  0  0
    1.4704   -0.3151    0.0000 C   0  0  0  0  0  0  0  0  0  0  0  0
    1.1133   -1.4704    0.0000 C   0  0  0  0  0  0  0  0  0  0  0  0
    8.5285    0.0000    0.0000 C   0  0  0  0  0  0  0  0  0  0  0  0
    6.4489    0.0000    0.0000 C   0  0  0  0  0  0  0  0  0  0  0  0
    2.0796   -3.5711    0.0000 C   0  0  0  0  0  0  0  0  0  0  0  0
    3.1089   -4.1802    0.0000 O   0  0  0  0  0  0  0  0  0  0  0  0
    1.0293   -4.1802    0.0000 N   0  0  0  0  0  0  0  0  0  0  0  0
    1.0293   -5.3776    0.0000 C   0  0  0  0  0  0  0  0  0  0  0  0
    0.0000   -3.5711    0.0000 C   0  0  0  0  0  0  0  0  0  0  0  0
    2.0796   -5.9868    0.0000 C   0  0  0  0  0  0  0  0  0  0  0  0
    3.1089   -5.3776    0.0000 O   0  0  0  0  0  0  0  0  0  0  0  0
    2.0796   -7.1841    0.0000 N   0  0  0  0  0  0  0  0  0  0  0  0
    1.0293   -7.7723    0.0000 C   0  0  0  0  0  0  0  0  0  0  0  0
    3.1089   -7.7723    0.0000 C   0  0  1  0  0  0  0  0  0  0  0  0
    3.1089   -8.9697    0.0000 C   0  0  0  0  0  0  0  0  0  0  0  0
    2.0796   -9.5788    0.0000 C   0  0  0  0  0  0  0  0  0  0  0  0
    4.1592   -9.5788    0.0000 C   0  0  0  0  0  0  0  0  0  0  0  0
  1  2  1  0  0  0  0
  1  3  1  0  0  0  0
  1  4  2  0  0  0  0
  2  5  1  0  0  0  0
  2  6  2  0  0  0  0
  3  7  1  0  0  0  0
  3  8  2  0  0  0  0
  4  9  1  0  0  0  0
  5 10  1  0  0  0  0
  6 11  1  0  0  0  0
  6 12  1  0  0  0  0
  7 13  1  0  0  0  0
  7 14  2  0  0  0  0
  8 15  1  0  0  0  0
  8 11  1  0  0  0  0
  9 16  2  0  0  0  0
  9 10  1  0  0  0  0
 10 17  2  0  0  0  0
 11 18  2  0  0  0  0
 16 19  1  0  0  0  0
 16 20  1  0  0  0  0
 17 21  1  0  0  0  0
 17 22  1  0  0  0  0
 19 23  1  0  0  0  0
 19 24  2  0  0  0  0
 20 21  2  0  0  0  0
 25 13  1  6  0  0  0
 25 26  1  0  0  0  0
 25 27  1  0  0  0  0
 26 28  1  0  0  0  0
 26 29  2  0  0  0  0
 27 30  1  1  0  0  0
 27 31  1  0  0  0  0
 28 34  1  0  0  0  0
 31 32  1  0  0  0  0
 32 33  2  0  0  0  0
 32 54  1  0  0  0  0
 34 35  1  6  0  0  0
 34 36  1  0  0  0  0
 35 43  1  0  0  0  0
 35 44  1  0  0  0  0
 36 37  1  0  0  0  0
 36 38  2  0  0  0  0
 37 39  1  0  0  0  0
 37 40  1  0  0  0  0
 39 41  1  0  0  0  0
 40 42  1  0  0  0  0
 40 45  1  0  0  0  0
 41 42  1  0  0  0  0
 45 46  2  0  0  0  0
 45 47  1  0  0  0  0
 47 48  1  0  0  0  0
 47 49  1  0  0  0  0
 48 50  1  0  0  0  0
 50 51  2  0  0  0  0
 50 52  1  0  0  0  0
 52 53  1  0  0  0  0
 52 54  1  0  0  0  0
 54 55  1  1  0  0  0
 55 56  1  0  0  0  0
 55 57  1  0  0  0  0
 58 23  1  1  0  0  0
 58 59  1  0  0  0  0
 58 60  1  0  0  0  0
 59 61  1  0  0  0  0
 59 62  2  0  0  0  0
 60 63  1  6  0  0  0
 60 64  1  0  0  0  0
 61 67  1  0  0  0  0
 64 65  1  0  0  0  0
 65 66  2  0  0  0  0
 65 87  1  0  0  0  0
 67 68  1  1  0  0  0
 67 69  1  0  0  0  0
 68 76  1  0  0  0  0
 68 77  1  0  0  0  0
 69 70  1  0  0  0  0
 69 71  2  0  0  0  0
 70 72  1  0  0  0  0
 70 73  1  0  0  0  0
 72 74  1  0  0  0  0
 73 75  1  0  0  0  0
 73 78  1  0  0  0  0
 74 75  1  0  0  0  0
 78 79  2  0  0  0  0
 78 80  1  0  0  0  0
 80 81  1  0  0  0  0
 80 82  1  0  0  0  0
 81 83  1  0  0  0  0
 83 84  2  0  0  0  0
 83 85  1  0  0  0  0
 85 86  1  0  0  0  0
 85 87  1  0  0  0  0
 87 88  1  6  0  0  0
 88 89  1  0  0  0  0
 88 90  1  0  0  0  0
M  END
>  <ActivityOutcome_CPDBAS_Rat>
active

>  <cdk:Formula>
[]

>  <TD50_Rat_mmol>
0.000000884

>  <net.bioclipse.cdk.fingerprint>
AKHI+8CN02B2fhzg9iRTmVcx5bshqDXTyOAWNELTZW2n/zuH6bbEZ96szvVc6Bgj/Gpa8jaK7XiDTLhcq+2OBHv33h5dhVaZ1f/pYqd6pHDLBaFPQj7DwOTzpTBhKmCA971Bc0xd+Sfw1W9qfv56mQ/fJDrVtPLfRPwRalRPYjhA

$$$$

 OpenBabel04131118512D

 18 19  0  0  0  0  0  0  0  0999 V2000
    3.2539   -3.5908    0.0000 C   0  0  0  0  0  0  0  0  0  0  0  0
    3.2539   -2.2609    0.0000 C   0  0  0  0  0  0  0  0  0  0  0  0
    4.4065   -1.5871    0.0000 C   0  0  0  0  0  0  0  0  0  0  0  0
    4.4065   -4.2469    0.0000 O   0  0  0  0  0  0  0  0  0  0  0  0
    2.1190   -4.2469    0.0000 N   0  0  0  0  0  0  0  0  0  0  0  0
    1.9683   -0.2660    0.0000 O   0  0  0  0  0  0  0  0  0  0  0  0
    0.6738    0.0000    0.0000 C   0  0  0  0  0  0  0  0  0  0  0  0
    2.1190   -1.5871    0.0000 C   0  0  0  0  0  0  0  0  0  0  0  0
    0.0000   -1.1526    0.0000 C   0  0  0  0  0  0  0  0  0  0  0  0
    0.8955   -2.1279    0.0000 C   0  0  0  0  0  0  0  0  0  0  0  0
    5.7098   -3.5908    0.0000 O   0  0  0  0  0  0  0  0  0  0  0  0
    7.0043   -3.8568    0.0000 C   0  0  0  0  0  0  0  0  0  0  0  0
    5.5591   -2.2609    0.0000 C   0  0  0  0  0  0  0  0  0  0  0  0
    7.6781   -2.7042    0.0000 C   0  0  0  0  0  0  0  0  0  0  0  0
    6.7827   -1.7112    0.0000 C   0  0  0  0  0  0  0  0  0  0  0  0
    7.5540   -5.0803    0.0000 N   0  3  0  0  0  0  0  0  0  0  0  0
    6.7649   -6.1532    0.0000 O   0  5  0  0  0  0  0  0  0  0  0  0
    8.8662   -5.2045    0.0000 O   0  0  0  0  0  0  0  0  0  0  0  0
  1  2  1  0  0  0  0
  1  5  1  0  0  0  0
  1  4  2  0  0  0  0
  2  3  2  0  0  0  0
  2  8  1  0  0  0  0
  3 13  1  0  0  0  0
  6  7  1  0  0  0  0
  6  8  1  0  0  0  0
  7  9  2  0  0  0  0
  8 10  2  0  0  0  0
  9 10  1  0  0  0  0
 11 12  1  0  0  0  0
 11 13  1  0  0  0  0
 12 14  2  0  0  0  0
 12 16  1  0  0  0  0
 13 15  2  0  0  0  0
 14 15  1  0  0  0  0
 16 17  1  0  0  0  0
 16 18  2  0  0  0  0
M  CHG  2  16   1  17  -1
M  END
>  <ActivityOutcome_CPDBAS_Rat>
active

>  <cdk:Formula>
[]

>  <TD50_Rat_mmol>
0.118

>  <net.bioclipse.cdk.fingerprint>
EkACABILBaFiABg5AgHAQBRKKAABAJDhEAAYQAAMBBQDAhBgAEQABEBQAAEAAQCgIEAACAIIVABBQAiAUASCAAAQBKAAQBgAMAAgAEQMgEoAAAKAUCCEAECAAAAgA8AEIABEEBQgBAAAAHIQYJAEAQgAlQAC8SgAsIIEBQACAEA=

$$$$

 OpenBabel04131118512D

 23 27  0  0  0  0  0  0  0  0999 V2000
    5.7454   -4.6535    0.0000 C   0  0  0  0  0  0  0  0  0  0  0  0
    4.5929   -3.9863    0.0000 C   0  0  0  0  0  0  0  0  0  0  0  0
    4.5929   -2.6604    0.0000 C   0  0  0  0  0  0  0  0  0  0  0  0
    3.4403   -1.9931    0.0000 C   0  0  0  0  0  0  0  0  0  0  0  0
    2.2878   -2.6604    0.0000 C   0  0  0  0  0  0  0  0  0  0  0  0
    2.2878   -3.9863    0.0000 C   0  0  0  0  0  0  0  0  0  0  0  0
    3.4403   -4.6535    0.0000 O   0  0  0  0  0  0  0  0  0  0  0  0
    1.1352   -4.6535    0.0000 O   0  0  0  0  0  0  0  0  0  0  0  0
    1.2999   -1.7678    0.0000 C   0  0  2  0  0  0  0  0  0  0  0  0
    0.0000   -2.0451    0.0000 O   0  0  0  0  0  0  0  0  0  0  0  0
    1.8458   -0.5546    0.0000 C   0  0  0  0  0  0  0  0  0  0  0  0
    3.1630   -0.6933    0.0000 C   0  0  0  0  0  0  0  0  0  0  0  0
    5.7454   -1.9931    0.0000 C   0  0  0  0  0  0  0  0  0  0  0  0
    6.8980   -2.6604    0.0000 C   0  0  0  0  0  0  0  0  0  0  0  0
    6.8980   -3.9863    0.0000 C   0  0  0  0  0  0  0  0  0  0  0  0
    7.8859   -4.8788    0.0000 O   0  0  0  0  0  0  0  0  0  0  0  0
    7.3399   -6.0921    0.0000 C   0  0  0  0  0  0  0  0  0  0  0  0
    6.0227   -5.9534    0.0000 C   0  0  0  0  0  0  0  0  0  0  0  0
    5.4768   -7.1666    0.0000 C   0  0  0  0  0  0  0  0  0  0  0  0
    6.4647   -8.0592    0.0000 C   0  0  0  0  0  0  0  0  0  0  0  0
    7.6172   -7.3919    0.0000 O   0  0  0  0  0  0  0  0  0  0  0  0
    5.7454   -0.6673    0.0000 O   0  0  0  0  0  0  0  0  0  0  0  0
    6.8980    0.0000    0.0000 C   0  0  0  0  0  0  0  0  0  0  0  0
  1  2  1  0  0  0  0
  1 15  2  0  0  0  0
  1 18  1  0  0  0  0
  2  3  2  0  0  0  0
  2  7  1  0  0  0  0
  3  4  1  0  0  0  0
  3 13  1  0  0  0  0
  4  5  2  0  0  0  0
  4 12  1  0  0  0  0
  5  6  1  0  0  0  0
  5  9  1  0  0  0  0
  6  7  1  0  0  0  0
  6  8  2  0  0  0  0
  9 10  1  6  0  0  0
  9 11  1  0  0  0  0
 11 12  1  0  0  0  0
 13 14  2  0  0  0  0
 13 22  1  0  0  0  0
 14 15  1  0  0  0  0
 15 16  1  0  0  0  0
 16 17  1  0  0  0  0
 17 18  1  0  0  0  0
 17 21  1  0  0  0  0
 18 19  1  0  0  0  0
 19 20  2  0  0  0  0
 20 21  1  0  0  0  0
 22 23  1  0  0  0  0
M  END
>  <ActivityOutcome_CPDBAS_Rat>
active

>  <cdk:Formula>
[]

>  <TD50_Rat_mmol>
0.00000786

>  <net.bioclipse.cdk.fingerprint>
GGgCKRYDB4RAoBASFzCSRBJokhJUpTvoyEQO4sIKRwVLHW5hmlgqBKgAiGxosoAQMRZ0IFGYcCdWWARuwFAVAhEPOCEVzwpRjZQwJmOwFf0ScQlCAZEoQAnxMdgyQoogIaJHaEEoKzQBDRAGXZAMB3U7PEyi+DoFUwEwZWYoaAg=

$$$$

 OpenBabel04131118512D

 23 27  0  0  0  0  0  0  0  0999 V2000
    5.4986   -3.3221    0.0000 C   0  0  0  0  0  0  0  0  0  0  0  0
    4.3531   -3.9918    0.0000 C   0  0  0  0  0  0  0  0  0  0  0  0
    3.1987   -3.3221    0.0000 C   0  0  0  0  0  0  0  0  0  0  0  0
    2.0444   -3.9918    0.0000 C   0  0  0  0  0  0  0  0  0  0  0  0
    2.0444   -5.3224    0.0000 C   0  0  0  0  0  0  0  0  0  0  0  0
    3.1987   -5.9833    0.0000 C   0  0  0  0  0  0  0  0  0  0  0  0
    4.3531   -5.3224    0.0000 O   0  0  0  0  0  0  0  0  0  0  0  0
    3.1987   -7.3139    0.0000 O   0  0  0  0  0  0  0  0  0  0  0  0
    0.7843   -5.7277    0.0000 C   0  0  0  0  0  0  0  0  0  0  0  0
    0.3701   -6.9966    0.0000 O   0  0  0  0  0  0  0  0  0  0  0  0
    0.0000   -4.6527    0.0000 C   0  0  0  0  0  0  0  0  0  0  0  0
    0.7843   -3.5776    0.0000 C   0  0  0  0  0  0  0  0  0  0  0  0
    3.1987   -1.9915    0.0000 C   0  0  0  0  0  0  0  0  0  0  0  0
    4.3531   -1.3306    0.0000 C   0  0  0  0  0  0  0  0  0  0  0  0
    5.4986   -1.9915    0.0000 C   0  0  0  0  0  0  0  0  0  0  0  0
    6.7675   -1.5861    0.0000 O   0  0  0  0  0  0  0  0  0  0  0  0
    7.5430   -2.6612    0.0000 C   0  0  0  0  0  0  0  0  0  0  0  0
    6.7675   -3.7362    0.0000 C   0  0  0  0  0  0  0  0  0  0  0  0
    7.5430   -4.8113    0.0000 C   0  0  0  0  0  0  0  0  0  0  0  0
    8.8119   -4.3971    0.0000 C   0  0  0  0  0  0  0  0  0  0  0  0
    8.8119   -3.0665    0.0000 O   0  0  0  0  0  0  0  0  0  0  0  0
    2.0444   -1.3306    0.0000 O   0  0  0  0  0  0  0  0  0  0  0  0
    2.0444    0.0000    0.0000 C   0  0  0  0  0  0  0  0  0  0  0  0
  1  2  2  0  0  0  0
  1 15  1  0  0  0  0
  1 18  1  0  0  0  0
  2  3  1  0  0  0  0
  2  7  1  0  0  0  0
  3  4  1  0  0  0  0
  3 13  2  0  0  0  0
  4  5  2  0  0  0  0
  4 12  1  0  0  0  0
  5  6  1  0  0  0  0
  5  9  1  0  0  0  0
  6  7  1  0  0  0  0
  6  8  2  0  0  0  0
  9 10  2  0  0  0  0
  9 11  1  0  0  0  0
 11 12  1  0  0  0  0
 13 14  1  0  0  0  0
 13 22  1  0  0  0  0
 14 15  2  0  0  0  0
 15 16  1  0  0  0  0
 16 17  1  0  0  0  0
 17 18  1  0  0  0  0
 17 21  1  0  0  0  0
 18 19  1  0  0  0  0
 19 20  2  0  0  0  0
 20 21  1  0  0  0  0
 22 23  1  0  0  0  0
M  END
>  <ActivityOutcome_CPDBAS_Rat>
active

>  <cdk:Formula>
[]

>  <TD50_Rat_mmol>
0.0000102

>  <net.bioclipse.cdk.fingerprint>
GGgiKRYCB4REgBASFzCSRBJokhJUpTroyEQO4sIKRwVLDW5hmlgqBKhAiGxosIAQMRZ0IFGYUCdWXARuwFAVAxFOGCEFzwpTjZQ4JGOyBf0ScQlCAZEoRAnxMdgyQoggIaJHaEEoKzQBCRAGXZAsB3U7PE6i/DoFQwEwbSYoaAg=

$$$$

 OpenBabel04131118512D

  6  5  0  0  0  0  0  0  0  0999 V2000
    0.0000   -0.6684    0.0000 C   0  0  0  0  0  0  0  0  0  0  0  0
    1.1525   -1.3311    0.0000 C   0  0  0  0  0  0  0  0  0  0  0  0
    2.3050   -0.6684    0.0000 C   0  0  0  0  0  0  0  0  0  0  0  0
    3.4575   -1.3311    0.0000 N   0  0  0  0  0  0  0  0  0  0  0  0
    4.6099   -0.6684    0.0000 C   0  0  0  0  0  0  0  0  0  0  0  0
    5.7624    0.0000    0.0000 S   0  0  0  0  0  0  0  0  0  0  0  0
  1  2  2  0  0  0  0
  2  3  1  0  0  0  0
  3  4  1  0  0  0  0
  4  5  2  0  0  0  0
  5  6  2  0  0  0  0
M  END
>  <ActivityOutcome_CPDBAS_Rat>
active

>  <cdk:Formula>
[]

>  <TD50_Rat_mmol>
0.968

>  <net.bioclipse.cdk.fingerprint>
AMAAAAAAQAACAAAAAAAAAAAAAAAAAAAAAAAAAAAAAAACAAFgAAAAAAAAAAAAAAAAIAAAAAAAEAQAAAAABAAAAAAAAAAAAAAAAAAAAAAAAAAAAAAAAAAAAAAQAAAAAAAAAAAAAAAAEQAAAAAAAAAAAAAAAABAAEAAAAAAAAACAAA=

$$$$

 OpenBabel04131118512D

 10  9  0  0  0  0  0  0  0  0999 V2000
    4.6087    0.0000    0.0000 O   0  0  0  0  0  0  0  0  0  0  0  0
    4.6087   -1.3318    0.0000 C   0  0  0  0  0  0  0  0  0  0  0  0
    5.7629   -1.9936    0.0000 C   0  0  0  0  0  0  0  0  0  0  0  0
    6.9171   -1.3318    0.0000 C   0  0  0  0  0  0  0  0  0  0  0  0
    6.9171    0.0000    0.0000 C   0  0  0  0  0  0  0  0  0  0  0  0
    8.0713   -1.9936    0.0000 C   0  0  0  0  0  0  0  0  0  0  0  0
    3.4626   -1.9936    0.0000 O   0  0  0  0  0  0  0  0  0  0  0  0
    2.3084   -1.3318    0.0000 C   0  0  0  0  0  0  0  0  0  0  0  0
    1.1542   -1.9936    0.0000 C   0  0  0  0  0  0  0  0  0  0  0  0
    0.0000   -1.3318    0.0000 C   0  0  0  0  0  0  0  0  0  0  0  0
  1  2  2  0  0  0  0
  2  3  1  0  0  0  0
  2  7  1  0  0  0  0
  3  4  1  0  0  0  0
  4  5  1  0  0  0  0
  4  6  1  0  0  0  0
  7  8  1  0  0  0  0
  8  9  1  0  0  0  0
  9 10  2  0  0  0  0
M  END
>  <ActivityOutcome_CPDBAS_Rat>
active

>  <cdk:Formula>
[]

>  <TD50_Rat_mmol>
0.865

>  <net.bioclipse.cdk.fingerprint>
ANAAAAAAAABAAAACAAAAABAAAAAAAAAAgBAAAIAAAAAAAABgAIgAAAAAAAAAAABQIAIAAAAQEAAAAAAgQAAAAAAAAAAAAAAAAAAAAEAAAAAAAAAAAAAAQAAAEAAAAAAAAABAAAAAAAAAAAAAABAAAQEAAAAAUBAAAAAAAAAAAAA=

$$$$

 OpenBabel04131118512D

  9  8  0  0  0  0  0  0  0  0999 V2000
    4.6080   -1.9953    0.0000 C   0  0  0  0  0  0  0  0  0  0  0  0
    3.4560   -2.6588    0.0000 C   0  0  0  0  0  0  0  0  0  0  0  0
    2.3040   -1.9953    0.0000 N   0  0  0  0  0  0  0  0  0  0  0  0
    2.3040   -0.6635    0.0000 C   0  0  0  0  0  0  0  0  0  0  0  0
    3.4560    0.0000    0.0000 N   0  0  0  0  0  0  0  0  0  0  0  0
    1.1520    0.0000    0.0000 O   0  0  0  0  0  0  0  0  0  0  0  0
    1.1520   -2.6588    0.0000 N   0  0  0  0  0  0  0  0  0  0  0  0
    0.0000   -1.9953    0.0000 O   0  0  0  0  0  0  0  0  0  0  0  0
    4.6080   -0.6635    0.0000 C   0  0  0  0  0  0  0  0  0  0  0  0
  1  2  1  0  0  0  0
  1  9  2  0  0  0  0
  2  3  1  0  0  0  0
  3  4  1  0  0  0  0
  3  7  1  0  0  0  0
  4  5  1  0  0  0  0
  4  6  2  0  0  0  0
  7  8  2  0  0  0  0
M  END
>  <ActivityOutcome_CPDBAS_Rat>
active

>  <cdk:Formula>
[]

>  <TD50_Rat_mmol>
0.00264

>  <net.bioclipse.cdk.fingerprint>
QAAAAAAAAAIQAEgAAIAAAAAAAAAAAAAAAAIAAAAABAcAAGAAAAKAAAAAAAAAAQAgAAEAAAAQCAAAAgCAAAACgAAAAAAAAAAAAAAAAAAAgAAAAAAAAAAAAAAAAAAAAAAAAEQgAAEAAAAAAAAABAAAAAAAAABAAAAAAAAAAAMAAA==

$$$$

 OpenBabel04131118512D

 19 21  0  0  0  0  0  0  0  0999 V2000
    3.4588   -5.3212    0.0000 O   0  0  0  0  0  0  0  0  0  0  0  0
    3.4588   -3.9909    0.0000 C   0  0  0  0  0  0  0  0  0  0  0  0
    4.6036   -3.3298    0.0000 C   0  0  0  0  0  0  0  0  0  0  0  0
    5.7566   -3.9909    0.0000 C   0  0  0  0  0  0  0  0  0  0  0  0
    6.9095   -3.3298    0.0000 C   0  0  0  0  0  0  0  0  0  0  0  0
    6.9095   -1.9995    0.0000 C   0  0  0  0  0  0  0  0  0  0  0  0
    5.7566   -1.3303    0.0000 C   0  0  0  0  0  0  0  0  0  0  0  0
    4.6036   -1.9995    0.0000 C   0  0  0  0  0  0  0  0  0  0  0  0
    3.4588   -1.3303    0.0000 C   0  0  0  0  0  0  0  0  0  0  0  0
    3.4588    0.0000    0.0000 O   0  0  0  0  0  0  0  0  0  0  0  0
    2.3059   -1.9995    0.0000 C   0  0  0  0  0  0  0  0  0  0  0  0
    2.3059   -3.3298    0.0000 C   0  0  0  0  0  0  0  0  0  0  0  0
    1.1529   -3.9909    0.0000 C   0  0  0  0  0  0  0  0  0  0  0  0
    0.0000   -3.3298    0.0000 C   0  0  0  0  0  0  0  0  0  0  0  0
    0.0000   -1.9995    0.0000 C   0  0  0  0  0  0  0  0  0  0  0  0
    1.1529   -1.3303    0.0000 C   0  0  0  0  0  0  0  0  0  0  0  0
    5.7566    0.0000    0.0000 Br  0  0  0  0  0  0  0  0  0  0  0  0
    8.0624   -3.9909    0.0000 Br  0  0  0  0  0  0  0  0  0  0  0  0
    5.7566   -5.3212    0.0000 N   0  0  0  0  0  0  0  0  0  0  0  0
  1  2  2  0  0  0  0
  2  3  1  0  0  0  0
  2 12  1  0  0  0  0
  3  4  2  0  0  0  0
  3  8  1  0  0  0  0
  4  5  1  0  0  0  0
  4 19  1  0  0  0  0
  5  6  2  0  0  0  0
  5 18  1  0  0  0  0
  6  7  1  0  0  0  0
  7  8  2  0  0  0  0
  7 17  1  0  0  0  0
  8  9  1  0  0  0  0
  9 10  2  0  0  0  0
  9 11  1  0  0  0  0
 11 12  2  0  0  0  0
 11 16  1  0  0  0  0
 12 13  1  0  0  0  0
 13 14  2  0  0  0  0
 14 15  1  0  0  0  0
 15 16  2  0  0  0  0
M  END
>  <ActivityOutcome_CPDBAS_Rat>
active

>  <cdk:Formula>
[]

>  <TD50_Rat_mmol>
0.121

>  <net.bioclipse.cdk.fingerprint>
AgAoECQACCIPgYAAgCAhFAEDIAACAEAAAAAABAxEAlhAAOgAQDEEAABAAQIQAQVgAAQgBAkACFAhABBAACAIAAQIAACAAUAAAAAAQQFiIQgAAADgAIYAQICEAAAJgAAgAUgAQCAACAAAACJAICQAAAAUIKAUCkEoAAAAAAISAA==

$$$$

 OpenBabel04131118512D

 20 21  0  0  0  0  0  0  0  0999 V2000
   14.3944   -3.3539    0.0000 N   0  0  0  0  0  0  0  0  0  0  0  0
   13.1277   -2.9365    0.0000 C   0  0  0  0  0  0  0  0  0  0  0  0
   12.8542   -1.6410    0.0000 N   0  0  0  0  0  0  0  0  0  0  0  0
   12.1345   -3.8289    0.0000 N   0  0  0  0  0  0  0  0  0  0  0  0
   10.8822   -3.4259    0.0000 C   0  0  0  0  0  0  0  0  0  0  0  0
    9.8026   -4.2032    0.0000 N   0  0  0  0  0  0  0  0  0  0  0  0
    8.7230   -3.4259    0.0000 C   0  0  0  0  0  0  0  0  0  0  0  0
    7.4563   -3.8289    0.0000 C   0  0  0  0  0  0  0  0  0  0  0  0
    6.4775   -2.9365    0.0000 S   0  0  0  0  0  0  0  0  0  0  0  0
    5.2108   -3.3539    0.0000 C   0  0  0  0  0  0  0  0  0  0  0  0
    4.2176   -2.4615    0.0000 C   0  0  0  0  0  0  0  0  0  0  0  0
    2.9509   -2.8789    0.0000 N   0  0  0  0  0  0  0  0  0  0  0  0
    1.9720   -1.9864    0.0000 C   0  0  0  0  0  0  0  0  0  0  0  0
    0.6621   -2.2599    0.0000 N   0  0  0  0  0  0  0  0  0  0  0  0
    0.0000   -1.1084    0.0000 S   0  0  0  0  0  0  0  0  0  0  0  0
    0.8925   -0.1152    0.0000 N   0  0  0  0  0  0  0  0  0  0  0  0
    2.1016   -0.6621    0.0000 C   0  0  0  0  0  0  0  0  0  0  0  0
    3.2531    0.0000    0.0000 N   0  0  0  0  0  0  0  0  0  0  0  0
    9.1405   -2.1592    0.0000 C   0  0  0  0  0  0  0  0  0  0  0  0
   10.4648   -2.1592    0.0000 S   0  0  0  0  0  0  0  0  0  0  0  0
  1  2  2  0  0  0  0
  2  3  1  0  0  0  0
  2  4  1  0  0  0  0
  4  5  1  0  0  0  0
  5  6  2  0  0  0  0
  5 20  1  0  0  0  0
  6  7  1  0  0  0  0
  7  8  1  0  0  0  0
  7 19  2  0  0  0  0
  8  9  1  0  0  0  0
  9 10  1  0  0  0  0
 10 11  1  0  0  0  0
 11 12  1  0  0  0  0
 12 13  1  0  0  0  0
 13 14  2  0  0  0  0
 13 17  1  0  0  0  0
 14 15  1  0  0  0  0
 15 16  1  0  0  0  0
 16 17  2  0  0  0  0
 17 18  1  0  0  0  0
 19 20  1  0  0  0  0
M  END
>  <ActivityOutcome_CPDBAS_Rat>
active

>  <cdk:Formula>
[]

>  <TD50_Rat_mmol>
15.1

>  <net.bioclipse.cdk.fingerprint>
ECICAKBOh2IxAOSAMSIZCQBAYgAlgAAAAgEgBBbCQCAgAWAEIAAEQEAAQhIAIABgBESAAAUgFdCCgCjACQABURACAAWAAAAAAAQWoGgglAAQRJCEawAIUAAEZECBgQAABCIOAChCANBAFACCAIACAiABQEABACAAQQZAAAMBCQ==

$$$$

 OpenBabel04131118512D

 18 20  0  0  0  0  0  0  0  0999 V2000
    4.6526   -4.6047    0.0000 O   0  0  0  0  0  0  0  0  0  0  0  0
    3.9902   -3.4555    0.0000 C   0  0  0  0  0  0  0  0  0  0  0  0
    4.6526   -2.2984    0.0000 C   0  0  0  0  0  0  0  0  0  0  0  0
    5.9853   -2.2984    0.0000 C   0  0  0  0  0  0  0  0  0  0  0  0
    6.6477   -1.1492    0.0000 C   0  0  0  0  0  0  0  0  0  0  0  0
    5.9853    0.0000    0.0000 C   0  0  0  0  0  0  0  0  0  0  0  0
    4.6526    0.0000    0.0000 C   0  0  0  0  0  0  0  0  0  0  0  0
    3.9902   -1.1492    0.0000 C   0  0  0  0  0  0  0  0  0  0  0  0
    2.6575   -1.1492    0.0000 C   0  0  0  0  0  0  0  0  0  0  0  0
    1.9951    0.0000    0.0000 O   0  0  0  0  0  0  0  0  0  0  0  0
    1.9951   -2.2984    0.0000 C   0  0  0  0  0  0  0  0  0  0  0  0
    2.6575   -3.4555    0.0000 C   0  0  0  0  0  0  0  0  0  0  0  0
    1.9951   -4.6047    0.0000 C   0  0  0  0  0  0  0  0  0  0  0  0
    0.6624   -4.6047    0.0000 C   0  0  0  0  0  0  0  0  0  0  0  0
    0.0000   -3.4555    0.0000 C   0  0  0  0  0  0  0  0  0  0  0  0
    0.6624   -2.2984    0.0000 C   0  0  0  0  0  0  0  0  0  0  0  0
    7.9804   -1.1492    0.0000 C   0  0  0  0  0  0  0  0  0  0  0  0
    6.6477   -3.4555    0.0000 N   0  0  0  0  0  0  0  0  0  0  0  0
  1  2  2  0  0  0  0
  2  3  1  0  0  0  0
  2 12  1  0  0  0  0
  3  4  2  0  0  0  0
  3  8  1  0  0  0  0
  4  5  1  0  0  0  0
  4 18  1  0  0  0  0
  5  6  2  0  0  0  0
  5 17  1  0  0  0  0
  6  7  1  0  0  0  0
  7  8  2  0  0  0  0
  8  9  1  0  0  0  0
  9 10  2  0  0  0  0
  9 11  1  0  0  0  0
 11 12  2  0  0  0  0
 11 16  1  0  0  0  0
 12 13  1  0  0  0  0
 13 14  2  0  0  0  0
 14 15  1  0  0  0  0
 15 16  2  0  0  0  0
M  END
>  <ActivityOutcome_CPDBAS_Rat>
active

>  <cdk:Formula>
[]

>  <TD50_Rat_mmol>
0.25

>  <net.bioclipse.cdk.fingerprint>
AwAKACAAACIBgYAAgCABEAEAIAACAEAAAAAABAxsAlgAAGgAQBEGAAAAAQIAAQBwQARABAEBAEABABBAAAACABQIAACAAEAAAAAIQABiAAgAAADAAIAAQIAAAAAIgAAgAEgAQCAAAAAAACJAICQAIAAUIIIQCkEoAAAGAAISAA==

$$$$

 OpenBabel04131118512D

 14 15  0  0  0  0  0  0  0  0999 V2000
    2.3652   -3.2915    0.0000 O   0  0  0  0  0  0  0  0  0  0  0  0
    1.1511   -2.7519    0.0000 C   0  0  0  0  0  0  0  0  0  0  0  0
    1.2950   -1.4299    0.0000 N   0  0  0  0  0  0  0  0  0  0  0  0
    2.5900   -1.1511    0.0000 N   0  0  0  0  0  0  0  0  0  0  0  0
    3.2555   -2.3022    0.0000 C   0  0  0  0  0  0  0  0  0  0  0  0
    4.5865   -2.4461    0.0000 C   0  0  0  0  0  0  0  0  0  0  0  0
    5.4768   -1.4569    0.0000 O   0  0  0  0  0  0  0  0  0  0  0  0
    6.6908   -1.9965    0.0000 C   0  0  0  0  0  0  0  0  0  0  0  0
    6.5469   -3.3184    0.0000 C   0  0  0  0  0  0  0  0  0  0  0  0
    5.2430   -3.5972    0.0000 C   0  0  0  0  0  0  0  0  0  0  0  0
    7.8419   -1.3310    0.0000 N   0  3  0  0  0  0  0  0  0  0  0  0
    7.8419    0.0000    0.0000 O   0  0  0  0  0  0  0  0  0  0  0  0
    8.9931   -1.9965    0.0000 O   0  5  0  0  0  0  0  0  0  0  0  0
    0.0000   -3.4174    0.0000 N   0  0  0  0  0  0  0  0  0  0  0  0
  1  2  1  0  0  0  0
  1  5  1  0  0  0  0
  2  3  2  0  0  0  0
  2 14  1  0  0  0  0
  3  4  1  0  0  0  0
  4  5  2  0  0  0  0
  5  6  1  0  0  0  0
  6  7  1  0  0  0  0
  6 10  2  0  0  0  0
  7  8  1  0  0  0  0
  8  9  2  0  0  0  0
  8 11  1  0  0  0  0
  9 10  1  0  0  0  0
 11 12  2  0  0  0  0
 11 13  1  0  0  0  0
M  CHG  2  11   1  13  -1
M  END
>  <ActivityOutcome_CPDBAS_Rat>
active

>  <cdk:Formula>
[]

>  <TD50_Rat_mmol>
0.0187

>  <net.bioclipse.cdk.fingerprint>
FAGAOI4BJWsIkAgAAMAgBkpgAIAAsMEQAMFBAAwABAABgPQiZAAAMBiAAABgAQAkIAQoYgABA0gAaACABIAAIWAAMCIAYWJCEAAAQAyAgBgAEgIQAEwAxIAKkCAAgARgAHwAFCAEgIgMYgBAkIKBgICBAALAAGBAAEAACAIIIA==

$$$$

 OpenBabel04131118512D

 14 15  0  0  0  0  0  0  0  0999 V2000
    8.4233   -3.5294    0.0000 N   0  0  0  0  0  0  0  0  0  0  0  0
    7.5389   -2.5523    0.0000 C   0  0  0  0  0  0  0  0  0  0  0  0
    6.2248   -2.6870    0.0000 S   0  0  0  0  0  0  0  0  0  0  0  0
    5.6857   -1.4825    0.0000 C   0  0  0  0  0  0  0  0  0  0  0  0
    4.3970   -1.2045    0.0000 C   0  0  0  0  0  0  0  0  0  0  0  0
    3.4957   -2.1985    0.0000 O   0  0  0  0  0  0  0  0  0  0  0  0
    2.2743   -1.4320    0.0000 C   0  0  0  0  0  0  0  0  0  0  0  0
    1.0698   -1.9626    0.0000 N   0  3  0  0  0  0  0  0  0  0  0  0
    0.0000   -1.1877    0.0000 O   0  5  0  0  0  0  0  0  0  0  0  0
    0.9266   -3.2767    0.0000 O   0  0  0  0  0  0  0  0  0  0  0  0
    2.5523   -0.1348    0.0000 C   0  0  0  0  0  0  0  0  0  0  0  0
    3.8579    0.0000    0.0000 C   0  0  0  0  0  0  0  0  0  0  0  0
    6.6713   -0.5981    0.0000 N   0  0  0  0  0  0  0  0  0  0  0  0
    7.8168   -1.2551    0.0000 N   0  0  0  0  0  0  0  0  0  0  0  0
  1  2  1  0  0  0  0
  2  3  1  0  0  0  0
  2 14  2  0  0  0  0
  3  4  1  0  0  0  0
  4  5  1  0  0  0  0
  4 13  2  0  0  0  0
  5  6  1  0  0  0  0
  5 12  2  0  0  0  0
  6  7  1  0  0  0  0
  7  8  1  0  0  0  0
  7 11  2  0  0  0  0
  8  9  1  0  0  0  0
  8 10  2  0  0  0  0
 11 12  1  0  0  0  0
 13 14  1  0  0  0  0
M  CHG  2   8   1   9  -1
M  END
>  <ActivityOutcome_CPDBAS_Rat>
active

>  <cdk:Formula>
[]

>  <TD50_Rat_mmol>
0.00312

>  <net.bioclipse.cdk.fingerprint>
IAAAADiKASVhAFAIAIDIIABKJAAAAbrBUSjEQYCNIAxAAIFgABQAAGCSgAAAcAOKJIDEYEYAAANAAiwAAASAAAFAADAiMAQAQxAAAEQNwAAQAI4CEABEAMTAJiAiAICNIgBUQBQgBIiIBDokYJCGAYCAgAACgADgIBAIAUKCIgA=

$$$$

 OpenBabel04131118512D

 14 15  0  0  0  0  0  0  0  0999 V2000
    5.7002   -2.7618    0.0000 C   0  0  0  0  0  0  0  0  0  0  0  0
    6.4855   -1.6853    0.0000 N   0  0  0  0  0  0  0  0  0  0  0  0
    7.7473   -2.1001    0.0000 C   0  0  0  0  0  0  0  0  0  0  0  0
    7.7473   -3.4236    0.0000 S   0  0  0  0  0  0  0  0  0  0  0  0
    6.4855   -3.8383    0.0000 C   0  0  0  0  0  0  0  0  0  0  0  0
    8.8238   -1.3147    0.0000 N   0  0  0  0  0  0  0  0  0  0  0  0
    4.3678   -2.7618    0.0000 C   0  0  0  0  0  0  0  0  0  0  0  0
    3.5825   -3.8383    0.0000 C   0  0  0  0  0  0  0  0  0  0  0  0
    2.3207   -3.4236    0.0000 C   0  0  0  0  0  0  0  0  0  0  0  0
    2.3207   -2.1001    0.0000 C   0  0  0  0  0  0  0  0  0  0  0  0
    3.5825   -1.6853    0.0000 O   0  0  0  0  0  0  0  0  0  0  0  0
    1.2442   -1.3147    0.0000 N   0  3  0  0  0  0  0  0  0  0  0  0
    0.0000   -1.7912    0.0000 O   0  5  0  0  0  0  0  0  0  0  0  0
    1.4471    0.0000    0.0000 O   0  0  0  0  0  0  0  0  0  0  0  0
  1  2  1  0  0  0  0
  1  5  2  0  0  0  0
  1  7  1  0  0  0  0
  2  3  2  0  0  0  0
  3  4  1  0  0  0  0
  3  6  1  0  0  0  0
  4  5  1  0  0  0  0
  7  8  2  0  0  0  0
  7 11  1  0  0  0  0
  8  9  1  0  0  0  0
  9 10  2  0  0  0  0
 10 11  1  0  0  0  0
 10 12  1  0  0  0  0
 12 13  1  0  0  0  0
 12 14  2  0  0  0  0
M  CHG  2  12   1  13  -1
M  END
>  <ActivityOutcome_CPDBAS_Rat>
active

>  <cdk:Formula>
[]

>  <TD50_Rat_mmol>
0.0277

>  <net.bioclipse.cdk.fingerprint>
Bgb4wgMnYAAQCAWQkAABSqCigJEQwRABgEEELEAGgACRZIAGAARAGJQAAmEAAKQAQQACAAQGQIKAAAAGoQABRAICVAQAEgIQAIBALIhAEDACBZADBAjEoACgIIiABGABVAIVIKUA+CByAECwigIIAMBAAoEAAAAICAACAgCB

$$$$

 OpenBabel04131118512D

 11 11  0  0  0  0  0  0  0  0999 V2000
    0.0000   -3.4525    0.0000 O   0  0  0  0  0  0  0  0  0  0  0  0
    0.6642   -2.3037    0.0000 N   0  3  0  0  0  0  0  0  0  0  0  0
    1.9925   -2.3037    0.0000 C   0  0  0  0  0  0  0  0  0  0  0  0
    2.6567   -1.1488    0.0000 C   0  0  0  0  0  0  0  0  0  0  0  0
    3.9910   -1.1488    0.0000 C   0  0  0  0  0  0  0  0  0  0  0  0
    4.6552   -2.3037    0.0000 C   0  0  0  0  0  0  0  0  0  0  0  0
    3.9910   -3.4525    0.0000 C   0  0  0  0  0  0  0  0  0  0  0  0
    2.6567   -3.4525    0.0000 C   0  0  0  0  0  0  0  0  0  0  0  0
    5.9835   -2.3037    0.0000 O   0  0  0  0  0  0  0  0  0  0  0  0
    4.6552    0.0000    0.0000 N   0  0  0  0  0  0  0  0  0  0  0  0
    0.0000   -1.1488    0.0000 O   0  5  0  0  0  0  0  0  0  0  0  0
  1  2  2  0  0  0  0
  2  3  1  0  0  0  0
  2 11  1  0  0  0  0
  3  4  2  0  0  0  0
  3  8  1  0  0  0  0
  4  5  1  0  0  0  0
  5  6  2  0  0  0  0
  5 10  1  0  0  0  0
  6  7  1  0  0  0  0
  6  9  1  0  0  0  0
  7  8  2  0  0  0  0
M  CHG  2   2   1  11  -1
M  END
>  <ActivityOutcome_CPDBAS_Rat>
active

>  <cdk:Formula>
[]

>  <TD50_Rat_mmol>
5.44

>  <net.bioclipse.cdk.fingerprint>
EAIAACAAAAoAAAAEAAgAAAAAGEAAAAEAAAQABgAAAmEBBAAAAAAAAAAAAAAAAAAgAgAAAEAEAAAAAAAAAAgAAAAAQACAAAAAAAiAgAABAAAAACAAAAAAAAAQAAAgAAQAACAgAABAIAIACAAAAAAAAIAAABAAAAAAAAIQAA==

$$$$

 OpenBabel04131118512D

 11 11  0  0  0  0  0  0  0  0999 V2000
    0.0000   -3.4525    0.0000 O   0  0  0  0  0  0  0  0  0  0  0  0
    0.6642   -2.3037    0.0000 N   0  3  0  0  0  0  0  0  0  0  0  0
    1.9925   -2.3037    0.0000 C   0  0  0  0  0  0  0  0  0  0  0  0
    2.6567   -1.1488    0.0000 C   0  0  0  0  0  0  0  0  0  0  0  0
    3.9910   -1.1488    0.0000 C   0  0  0  0  0  0  0  0  0  0  0  0
    4.6552   -2.3037    0.0000 C   0  0  0  0  0  0  0  0  0  0  0  0
    3.9910   -3.4525    0.0000 C   0  0  0  0  0  0  0  0  0  0  0  0
    2.6567   -3.4525    0.0000 C   0  0  0  0  0  0  0  0  0  0  0  0
    5.9835   -2.3037    0.0000 N   0  0  0  0  0  0  0  0  0  0  0  0
    4.6552    0.0000    0.0000 O   0  0  0  0  0  0  0  0  0  0  0  0
    0.0000   -1.1488    0.0000 O   0  5  0  0  0  0  0  0  0  0  0  0
  1  2  2  0  0  0  0
  2  3  1  0  0  0  0
  2 11  1  0  0  0  0
  3  4  2  0  0  0  0
  3  8  1  0  0  0  0
  4  5  1  0  0  0  0
  5  6  2  0  0  0  0
  5 10  1  0  0  0  0
  6  7  1  0  0  0  0
  6  9  1  0  0  0  0
  7  8  2  0  0  0  0
M  CHG  2   2   1  11  -1
M  END
>  <ActivityOutcome_CPDBAS_Rat>
active

>  <cdk:Formula>
[]

>  <TD50_Rat_mmol>
0.72

>  <net.bioclipse.cdk.fingerprint>
EAIAACAAAAoAAAAAAAgAAAAAGEAQAAEAAAQABgAAAmEAhAIACAAAAAAAAAAAAAAgAgAAAEAEAAAAAAAAAAgAAAAAQACAAAAAAAiAgAAAAAAAABAAAAAAAAAQAAAgAAQAACAgAABAIAIAEAAAAAAAAIAAAAAAAAAAAAIQAA==

$$$$

 OpenBabel04131118512D

 11 11  0  0  0  0  0  0  0  0999 V2000
    1.9968   -4.6079    0.0000 O   0  0  0  0  0  0  0  0  0  0  0  0
    2.6577   -3.4583    0.0000 C   0  0  0  0  0  0  0  0  0  0  0  0
    1.9968   -2.3039    0.0000 C   0  0  0  0  0  0  0  0  0  0  0  0
    2.6577   -1.1543    0.0000 C   0  0  0  0  0  0  0  0  0  0  0  0
    3.9889   -1.1543    0.0000 C   0  0  0  0  0  0  0  0  0  0  0  0
    4.6544   -2.3039    0.0000 C   0  0  0  0  0  0  0  0  0  0  0  0
    3.9889   -3.4583    0.0000 C   0  0  0  0  0  0  0  0  0  0  0  0
    4.6544    0.0000    0.0000 N   0  0  0  0  0  0  0  0  0  0  0  0
    0.6656   -2.3039    0.0000 N   0  3  0  0  0  0  0  0  0  0  0  0
    0.0000   -3.4583    0.0000 O   0  0  0  0  0  0  0  0  0  0  0  0
    0.0000   -1.1543    0.0000 O   0  5  0  0  0  0  0  0  0  0  0  0
  1  2  1  0  0  0  0
  2  3  2  0  0  0  0
  2  7  1  0  0  0  0
  3  4  1  0  0  0  0
  3  9  1  0  0  0  0
  4  5  2  0  0  0  0
  5  6  1  0  0  0  0
  5  8  1  0  0  0  0
  6  7  2  0  0  0  0
  9 10  2  0  0  0  0
  9 11  1  0  0  0  0
M  CHG  2   9   1  11  -1
M  END
>  <ActivityOutcome_CPDBAS_Rat>
active

>  <cdk:Formula>
[]

>  <TD50_Rat_mmol>
2

>  <net.bioclipse.cdk.fingerprint>
EAIAACAAQAoAAAAEAAgAAAAAGEAAAAAAAAQABgAAAmEBBAAAAAAAACAAAAAAAAAgAgAAAEAEAAAAAAAAAAgAABAAQACAAAAAAAiAgAABAAAAACAAAAAAAAAQAAAgAAQAACAgAABAIAIAAAAAAAAAAIAAABAAAAAAAAIwAA==

$$$$

 OpenBabel04131118512D

  9  9  0  0  0  0  0  0  0  0999 V2000
    5.1188   -0.2969    0.0000 O   0  0  0  0  0  0  0  0  0  0  0  0
    4.4533   -1.4486    0.0000 N   0  3  0  0  0  0  0  0  0  0  0  0
    3.1225   -1.4486    0.0000 C   0  0  0  0  0  0  0  0  0  0  0  0
    2.3393   -2.5236    0.0000 C   0  0  0  0  0  0  0  0  0  0  0  0
    1.0749   -2.1141    0.0000 N   0  0  0  0  0  0  0  0  0  0  0  0
    1.0749   -0.7832    0.0000 C   0  0  0  0  0  0  0  0  0  0  0  0
    2.3393   -0.3737    0.0000 S   0  0  0  0  0  0  0  0  0  0  0  0
    0.0000    0.0000    0.0000 N   0  0  0  0  0  0  0  0  0  0  0  0
    5.1188   -2.6003    0.0000 O   0  5  0  0  0  0  0  0  0  0  0  0
  1  2  2  0  0  0  0
  2  3  1  0  0  0  0
  2  9  1  0  0  0  0
  3  4  2  0  0  0  0
  3  7  1  0  0  0  0
  4  5  1  0  0  0  0
  5  6  2  0  0  0  0
  6  7  1  0  0  0  0
  6  8  1  0  0  0  0
M  CHG  2   2   1   9  -1
M  END
>  <ActivityOutcome_CPDBAS_Rat>
active

>  <cdk:Formula>
[]

>  <TD50_Rat_mmol>
0.307

>  <net.bioclipse.cdk.fingerprint>
AiIQiAIEQAAACAAAAAABAQAAAAEQCAAgAAAEBEIEAAABYAQAAAABAAAAAgAAAAAAQIACAAAAQIKAAAgAAAABCAIAAgAABAAAAABAAAAAAAAAAAABAAAAAAAiAAAAAAAABCAEAABAgAAwApAAACIAAABAAAAAAAAAAABABgAA

$$$$

 OpenBabel04131118512D

 17 19  0  0  0  0  0  0  0  0999 V2000
    3.3283    0.0000    0.0000 O   0  0  0  0  0  0  0  0  0  0  0  0
    3.9907   -1.1493    0.0000 C   0  0  0  0  0  0  0  0  0  0  0  0
    3.3283   -2.2987    0.0000 C   0  0  0  0  0  0  0  0  0  0  0  0
    1.9954   -2.2987    0.0000 C   0  0  0  0  0  0  0  0  0  0  0  0
    1.3329   -3.4560    0.0000 C   0  0  0  0  0  0  0  0  0  0  0  0
    1.9954   -4.6053    0.0000 C   0  0  0  0  0  0  0  0  0  0  0  0
    3.3283   -4.6053    0.0000 C   0  0  0  0  0  0  0  0  0  0  0  0
    3.9907   -3.4560    0.0000 C   0  0  0  0  0  0  0  0  0  0  0  0
    5.3236   -3.4560    0.0000 C   0  0  0  0  0  0  0  0  0  0  0  0
    5.9861   -4.6053    0.0000 O   0  0  0  0  0  0  0  0  0  0  0  0
    5.9861   -2.2987    0.0000 C   0  0  0  0  0  0  0  0  0  0  0  0
    5.3236   -1.1493    0.0000 C   0  0  0  0  0  0  0  0  0  0  0  0
    5.9861    0.0000    0.0000 C   0  0  0  0  0  0  0  0  0  0  0  0
    7.3190    0.0000    0.0000 C   0  0  0  0  0  0  0  0  0  0  0  0
    7.9814   -1.1493    0.0000 C   0  0  0  0  0  0  0  0  0  0  0  0
    7.3190   -2.2987    0.0000 C   0  0  0  0  0  0  0  0  0  0  0  0
    0.0000   -3.4560    0.0000 N   0  0  0  0  0  0  0  0  0  0  0  0
  1  2  2  0  0  0  0
  2  3  1  0  0  0  0
  2 12  1  0  0  0  0
  3  4  2  0  0  0  0
  3  8  1  0  0  0  0
  4  5  1  0  0  0  0
  5  6  2  0  0  0  0
  5 17  1  0  0  0  0
  6  7  1  0  0  0  0
  7  8  2  0  0  0  0
  8  9  1  0  0  0  0
  9 10  2  0  0  0  0
  9 11  1  0  0  0  0
 11 12  2  0  0  0  0
 11 16  1  0  0  0  0
 12 13  1  0  0  0  0
 13 14  2  0  0  0  0
 14 15  1  0  0  0  0
 15 16  2  0  0  0  0
M  END
>  <ActivityOutcome_CPDBAS_Rat>
active

>  <cdk:Formula>
[]

>  <TD50_Rat_mmol>
0.452

>  <net.bioclipse.cdk.fingerprint>
CAAAAAAgAYGAAIBgARBBACAAAABBAAAAAAAMRAIYAABoAEARBgAAAAEiAAEAIAQEACABAABAAQAQQAAAAAAECAAAgABAAAAAAEAAYAAIAAAAwACAAACAAAAACIAAIABIAEAgAAAAAAACQCAEAAAAFACAEApBCAAAAAACEAA=

$$$$

 OpenBabel04131118512D

 17 18  0  0  0  0  0  0  0  0999 V2000
    2.6631    0.0000    0.0000 C   0  0  0  0  0  0  0  0  0  0  0  0
    1.9948   -1.1570    0.0000 C   0  0  0  0  0  0  0  0  0  0  0  0
    2.6631   -2.3040    0.0000 C   0  0  0  0  0  0  0  0  0  0  0  0
    1.9948   -3.4610    0.0000 C   0  0  0  0  0  0  0  0  0  0  0  0
    0.6683   -3.4610    0.0000 C   0  0  0  0  0  0  0  0  0  0  0  0
    0.0000   -2.3040    0.0000 C   0  0  0  0  0  0  0  0  0  0  0  0
    0.6683   -1.1570    0.0000 C   0  0  0  0  0  0  0  0  0  0  0  0
    3.9896   -2.3040    0.0000 N   0  0  0  0  0  0  0  0  0  0  0  0
    4.6579   -3.4610    0.0000 N   0  0  0  0  0  0  0  0  0  0  0  0
    5.9844   -3.4610    0.0000 C   0  0  0  0  0  0  0  0  0  0  0  0
    6.6527   -2.3040    0.0000 C   0  0  0  0  0  0  0  0  0  0  0  0
    7.9793   -2.3040    0.0000 C   0  0  0  0  0  0  0  0  0  0  0  0
    8.6475   -3.4610    0.0000 C   0  0  0  0  0  0  0  0  0  0  0  0
    7.9793   -4.6080    0.0000 C   0  0  0  0  0  0  0  0  0  0  0  0
    6.6527   -4.6080    0.0000 C   0  0  0  0  0  0  0  0  0  0  0  0
    9.9741   -3.4610    0.0000 N   0  0  0  0  0  0  0  0  0  0  0  0
    8.6475   -1.1570    0.0000 C   0  0  0  0  0  0  0  0  0  0  0  0
  1  2  1  0  0  0  0
  2  3  2  0  0  0  0
  2  7  1  0  0  0  0
  3  4  1  0  0  0  0
  3  8  1  0  0  0  0
  4  5  2  0  0  0  0
  5  6  1  0  0  0  0
  6  7  2  0  0  0  0
  8  9  2  0  0  0  0
  9 10  1  0  0  0  0
 10 11  2  0  0  0  0
 10 15  1  0  0  0  0
 11 12  1  0  0  0  0
 12 13  2  0  0  0  0
 12 17  1  0  0  0  0
 13 14  1  0  0  0  0
 13 16  1  0  0  0  0
 14 15  2  0  0  0  0
M  END
>  <ActivityOutcome_CPDBAS_Rat>
active

>  <cdk:Formula>
[]

>  <TD50_Rat_mmol>
0.0179

>  <net.bioclipse.cdk.fingerprint>
QAAiAAAAAAAAAQIAAAABAARAEABACABEABIAAABoEAAAAAAAAAAIAEEAYAAAAAAAAABAAAAAIAAAEBAEAAIAAAABoAAAAQAAAAAAAgAAAAAAAACgAAAEAIEAIAAAAEAgAAAgAAACQAAACABAAACAEAIAAAAQAAADEAA=

$$$$

 OpenBabel04131118512D

 12 12  0  0  0  0  0  0  0  0999 V2000
    4.0663   -4.2139    0.0000 N   0  0  0  0  0  0  0  0  0  0  0  0
    3.6134   -2.9635    0.0000 C   0  0  0  0  0  0  0  0  0  0  0  0
    2.3039   -2.7322    0.0000 C   0  0  0  0  0  0  0  0  0  0  0  0
    2.7568   -1.4818    0.0000 C   0  0  0  0  0  0  0  0  0  0  0  0
    4.0663   -1.2504    0.0000 C   0  0  0  0  0  0  0  0  0  0  0  0
    4.9228   -2.2694    0.0000 O   0  0  0  0  0  0  0  0  0  0  0  0
    4.5241    0.0000    0.0000 O   0  0  0  0  0  0  0  0  0  0  0  0
    2.3039   -4.0613    0.0000 C   0  0  0  0  0  0  0  0  0  0  0  0
    1.1519   -4.7259    0.0000 C   0  0  0  0  0  0  0  0  0  0  0  0
    0.0000   -4.0613    0.0000 C   0  0  0  0  0  0  0  0  0  0  0  0
    0.0000   -2.7322    0.0000 C   0  0  0  0  0  0  0  0  0  0  0  0
    1.1519   -2.0676    0.0000 C   0  0  0  0  0  0  0  0  0  0  0  0
  1  2  1  0  0  0  0
  2  3  1  0  0  0  0
  3  4  1  0  0  0  0
  3  8  1  0  0  0  0
  3 12  1  0  0  0  0
  4  5  1  0  0  0  0
  5  6  2  0  0  0  0
  5  7  1  0  0  0  0
  8  9  1  0  0  0  0
  9 10  1  0  0  0  0
 10 11  1  0  0  0  0
 11 12  1  0  0  0  0
M  END
>  <ActivityOutcome_CPDBAS_Rat>
active

>  <cdk:Formula>
[]

>  <TD50_Rat_mmol>
34.2

>  <net.bioclipse.cdk.fingerprint>
AgAAAhEBAAAAAAAAAAAAAEAAAAAAAAAABQEAYAAAAAAAAAAAIAAAECAAIgAAAAAAAAAAIEBAAAAAAAAAAAAAQAAABAAAAAEAAAAAAAAAAAAAABAAAAAAAAAAQAAAAUAAACAIAAAQAAEAAAAAAFAQAAAAAAAEAgAA

$$$$

 OpenBabel04131118512D

  6  6  0  0  0  0  0  0  0  0999 V2000
    1.3304   -1.0738    0.0000 C   0  0  0  0  0  0  0  0  0  0  0  0
    2.1104    0.0000    0.0000 N   0  0  0  0  0  0  0  0  0  0  0  0
    3.3767   -0.4086    0.0000 C   0  0  0  0  0  0  0  0  0  0  0  0
    3.3767   -1.7390    0.0000 N   0  0  0  0  0  0  0  0  0  0  0  0
    2.1104   -2.1509    0.0000 N   0  0  0  0  0  0  0  0  0  0  0  0
    0.0000   -1.0738    0.0000 N   0  0  0  0  0  0  0  0  0  0  0  0
  1  2  1  0  0  0  0
  1  5  2  0  0  0  0
  1  6  1  0  0  0  0
  2  3  2  0  0  0  0
  3  4  1  0  0  0  0
  4  5  1  0  0  0  0
M  END
>  <ActivityOutcome_CPDBAS_Rat>
active

>  <cdk:Formula>
[]

>  <TD50_Rat_mmol>
0.118

>  <net.bioclipse.cdk.fingerprint>
AgCIAgQAAAAAAAAAAABAAAAAAAAAAAAAQAAIAAAAAABgAAAAAAAAAAAAAAAAAAAAAAAAAAAAAAAAAAAAAAEAAAAAAAAAAAAAAAAEAAAAAAACAAEAACAAAAAAAAAAAAAAAAAAABAAAAAAGAAAAAAAAAAAAAAgAAAAAAACCAA=

$$$$

 OpenBabel04131118512D

 14 13  0  0  0  0  0  0  0  0999 V2000
    1.1352   -1.3403    0.0000 C   0  0  0  0  0  0  0  0  0  0  0  0
    2.2703   -2.0241    0.0000 C   0  0  0  0  0  0  0  0  0  0  0  0
    3.4055   -1.3403    0.0000 C   0  0  0  0  0  0  0  0  0  0  0  0
    4.5680   -2.0241    0.0000 C   0  0  0  0  0  0  0  0  0  0  0  0
    5.7032   -1.3403    0.0000 C   0  0  0  0  0  0  0  0  0  0  0  0
    6.8383   -2.0241    0.0000 C   0  0  0  0  0  0  0  0  0  0  0  0
    7.9735   -1.3403    0.0000 C   0  0  0  0  0  0  0  0  0  0  0  0
    9.1086   -2.0241    0.0000 C   0  0  0  0  0  0  0  0  0  0  0  0
   10.2712   -1.3403    0.0000 C   0  0  0  0  0  0  0  0  0  0  0  0
   11.4063   -2.0241    0.0000 C   0  0  0  0  0  0  0  0  0  0  0  0
   12.5415   -1.3403    0.0000 C   0  0  0  0  0  0  0  0  0  0  0  0
    1.1352    0.0000    0.0000 O   0  0  0  0  0  0  0  0  0  0  0  0
    0.0000   -2.0241    0.0000 O   0  0  0  0  0  0  0  0  0  0  0  0
   13.6766   -2.0241    0.0000 N   0  0  0  0  0  0  0  0  0  0  0  0
  1  2  1  0  0  0  0
  1 13  1  0  0  0  0
  1 12  2  0  0  0  0
  2  3  1  0  0  0  0
  3  4  1  0  0  0  0
  4  5  1  0  0  0  0
  5  6  1  0  0  0  0
  6  7  1  0  0  0  0
  7  8  1  0  0  0  0
  8  9  1  0  0  0  0
  9 10  1  0  0  0  0
 10 11  1  0  0  0  0
 11 14  1  0  0  0  0
M  END
>  <ActivityOutcome_CPDBAS_Rat>
active

>  <cdk:Formula>
[]

>  <TD50_Rat_mmol>
5.46

>  <net.bioclipse.cdk.fingerprint>
AgAAAhEBBAAAAAAAAAAAAEAAAAAAAAAAAQEAYAAAAAAAAAAAIAAAECAAIAAAAAAAAAAAIEBAAAAAAAAAAAAAQAAABAAAAAEAAAAAAAAAAAAAABAAAAAAAAAAQAAAAUAAACAIAAAQAAEAAAAAAVAQAAAAAAAEAgAA

$$$$

 OpenBabel04131118512D

 11 10  0  0  0  0  0  0  0  0999 V2000
    1.1536    0.0000    0.0000 O   0  0  0  0  0  0  0  0  0  0  0  0
    2.3071   -0.6696    0.0000 C   0  0  0  0  0  0  0  0  0  0  0  0
    2.3071   -2.0006    0.0000 N   0  0  0  0  0  0  0  0  0  0  0  0
    3.4607   -2.6621    0.0000 C   0  0  0  0  0  0  0  0  0  0  0  0
    4.6062   -2.0006    0.0000 C   0  0  0  0  0  0  0  0  0  0  0  0
    5.7598   -2.6621    0.0000 C   0  0  0  0  0  0  0  0  0  0  0  0
    6.9133   -2.0006    0.0000 C   0  0  0  0  0  0  0  0  0  0  0  0
    8.0669   -2.6621    0.0000 C   0  0  0  0  0  0  0  0  0  0  0  0
    1.1536   -2.6621    0.0000 N   0  0  0  0  0  0  0  0  0  0  0  0
    0.0000   -2.0006    0.0000 O   0  0  0  0  0  0  0  0  0  0  0  0
    3.4607    0.0000    0.0000 N   0  0  0  0  0  0  0  0  0  0  0  0
  1  2  2  0  0  0  0
  2  3  1  0  0  0  0
  2 11  1  0  0  0  0
  3  4  1  0  0  0  0
  3  9  1  0  0  0  0
  4  5  1  0  0  0  0
  5  6  1  0  0  0  0
  6  7  1  0  0  0  0
  7  8  1  0  0  0  0
  9 10  2  0  0  0  0
M  END
>  <ActivityOutcome_CPDBAS_Rat>
active

>  <cdk:Formula>
[]

>  <TD50_Rat_mmol>
0.00349

>  <net.bioclipse.cdk.fingerprint>
AgAAAAAAAhAASAABgAABAAAAABAAAAAAAAAAAAAEBQEAYAAAAoAAAAAAAAABECAAQQACAAAAAAAAQMAAAAKAAAAAAAAAQAAAAAAAAACAAABAACAAQAAAAAAAAAAAAABARCAAAQAIAAAAIAAQAAAgAAAAAEAAAAAAAAAAAwAA

$$$$

 OpenBabel04131118512D

 21 21  0  0  0  0  0  0  0  0999 V2000
    8.0682   -5.1439    0.0000 C   0  0  0  0  0  0  0  0  0  0  0  0
    8.0682   -3.8092    0.0000 C   0  0  0  0  0  0  0  0  0  0  0  0
    6.9285   -3.1493    0.0000 C   0  0  0  0  0  0  0  0  0  0  0  0
    5.7737   -3.8092    0.0000 O   0  0  0  0  0  0  0  0  0  0  0  0
    4.6190   -3.1493    0.0000 C   0  0  0  0  0  0  0  0  0  0  0  0
    3.4642   -3.8092    0.0000 C   0  0  0  0  0  0  0  0  0  0  0  0
    2.3095   -3.1493    0.0000 C   0  0  0  0  0  0  0  0  0  0  0  0
    2.3095   -1.8146    0.0000 C   0  0  0  0  0  0  0  0  0  0  0  0
    3.4642   -1.1547    0.0000 C   0  0  0  0  0  0  0  0  0  0  0  0
    4.6190   -1.8146    0.0000 C   0  0  0  0  0  0  0  0  0  0  0  0
    1.1547   -1.1547    0.0000 C   0  0  0  0  0  0  0  0  0  0  0  0
    0.0000   -0.4799    0.0000 C   0  0  0  0  0  0  0  0  0  0  0  0
    1.8146    0.0000    0.0000 C   0  0  0  0  0  0  0  0  0  0  0  0
    0.4949   -2.2945    0.0000 C   0  0  0  0  0  0  0  0  0  0  0  0
    9.2230   -3.1493    0.0000 O   0  0  0  0  0  0  0  0  0  0  0  0
   10.3777   -3.8092    0.0000 S   0  0  0  0  0  0  0  0  0  0  0  0
   10.3777   -5.1439    0.0000 O   0  0  0  0  0  0  0  0  0  0  0  0
   11.5325   -3.1493    0.0000 O   0  0  0  0  0  0  0  0  0  0  0  0
   12.6872   -3.8092    0.0000 C   0  0  0  0  0  0  0  0  0  0  0  0
   13.8420   -3.1493    0.0000 C   0  0  0  0  0  0  0  0  0  0  0  0
   14.9967   -3.8092    0.0000 Cl  0  0  0  0  0  0  0  0  0  0  0  0
  1  2  1  0  0  0  0
  2  3  1  0  0  0  0
  2 15  1  0  0  0  0
  3  4  1  0  0  0  0
  4  5  1  0  0  0  0
  5  6  2  0  0  0  0
  5 10  1  0  0  0  0
  6  7  1  0  0  0  0
  7  8  2  0  0  0  0
  8  9  1  0  0  0  0
  8 11  1  0  0  0  0
  9 10  2  0  0  0  0
 11 12  1  0  0  0  0
 11 13  1  0  0  0  0
 11 14  1  0  0  0  0
 15 16  1  0  0  0  0
 16 17  2  0  0  0  0
 16 18  1  0  0  0  0
 18 19  1  0  0  0  0
 19 20  1  0  0  0  0
 20 21  1  0  0  0  0
M  END
>  <ActivityOutcome_CPDBAS_Rat>
active

>  <cdk:Formula>
[]

>  <TD50_Rat_mmol>
0.289

>  <net.bioclipse.cdk.fingerprint>
BAAAEAACAAAAAAICABAIBAAAAAAAAAAIhIACAAAUIAAICAPlAIEAAAAAAAgAAAAYIAIAIAKCAABAAAQIQAkAAwCGGCgAAAEABAAgBCAggIAAEAgCASBAQICBEAEIAMAEIAACAEAgICAAAAACQAAEQAAAFgiAACAQBAABACAoAAA=

$$$$

 OpenBabel04131118512D

 14 14  0  0  0  0  0  0  0  0999 V2000
    5.9846    0.0000    0.0000 Cl  0  0  0  0  0  0  0  0  0  0  0  0
    5.3223   -1.1570    0.0000 C   0  0  0  0  0  0  0  0  0  0  0  0
    5.9846   -2.3061    0.0000 N   0  0  0  0  0  0  0  0  0  0  0  0
    5.3223   -3.4551    0.0000 C   0  0  0  0  0  0  0  0  0  0  0  0
    3.9898   -3.4551    0.0000 N   0  0  0  0  0  0  0  0  0  0  0  0
    3.3275   -2.3061    0.0000 C   0  0  0  0  0  0  0  0  0  0  0  0
    3.9898   -1.1570    0.0000 N   0  0  0  0  0  0  0  0  0  0  0  0
    1.9949   -2.3061    0.0000 N   0  0  0  0  0  0  0  0  0  0  0  0
    1.3326   -3.4551    0.0000 C   0  0  0  0  0  0  0  0  0  0  0  0
    1.9949   -4.6122    0.0000 C   0  0  0  0  0  0  0  0  0  0  0  0
    0.0000   -3.4551    0.0000 C   0  0  0  0  0  0  0  0  0  0  0  0
    5.9846   -4.6122    0.0000 N   0  0  0  0  0  0  0  0  0  0  0  0
    7.3172   -4.6122    0.0000 C   0  0  0  0  0  0  0  0  0  0  0  0
    7.9795   -5.7612    0.0000 C   0  0  0  0  0  0  0  0  0  0  0  0
  1  2  1  0  0  0  0
  2  3  2  0  0  0  0
  2  7  1  0  0  0  0
  3  4  1  0  0  0  0
  4  5  2  0  0  0  0
  4 12  1  0  0  0  0
  5  6  1  0  0  0  0
  6  7  2  0  0  0  0
  6  8  1  0  0  0  0
  8  9  1  0  0  0  0
  9 10  1  0  0  0  0
  9 11  1  0  0  0  0
 12 13  1  0  0  0  0
 13 14  1  0  0  0  0
M  END
>  <ActivityOutcome_CPDBAS_Rat>
active

>  <cdk:Formula>
[]

>  <TD50_Rat_mmol>
0.17

>  <net.bioclipse.cdk.fingerprint>
AgCACgQKQAAAAAChAABAAAAAAAAABBAAAAAAACQAAADgAAAAAAAAAAAAAAAEIgAAAQAAAAAAEAAAwIQAASAAAAESAAAAAEAAgIAABIAAAAAAAAEAACAAAAQAAAAAgAAAAAAAEBAAACAAEACAAAAAAAAAADAAAAAQAAACAAI=

$$$$

 OpenBabel04131118512D

 17 18  0  0  0  0  0  0  0  0999 V2000
    3.6962   -5.3133    0.0000 C   0  0  2  0  0  0  0  0  0  0  0  0
    3.7116   -4.0042    0.0000 N   0  0  0  0  0  0  0  0  0  0  0  0
    2.6413   -4.5741    0.0000 O   0  0  0  0  0  0  0  0  0  0  0  0
    3.3035   -6.6147    0.0000 C   0  0  1  0  0  0  0  0  0  0  0  0
    4.8513   -3.3497    0.0000 C   0  0  0  0  0  0  0  0  0  0  0  0
    2.5643   -3.3266    0.0000 C   0  0  0  0  0  0  0  0  0  0  0  0
    1.5555   -5.3672    0.0000 C   0  0  1  0  0  0  0  0  0  0  0  0
    1.9636   -6.6147    0.0000 C   0  0  1  0  0  0  0  0  0  0  0  0
    4.1120   -7.6774    0.0000 O   0  0  0  0  0  0  0  0  0  0  0  0
    4.8590   -2.0175    0.0000 N   0  0  0  0  0  0  0  0  0  0  0  0
    6.0064   -4.0196    0.0000 O   0  0  0  0  0  0  0  0  0  0  0  0
    2.5643   -2.0021    0.0000 N   0  0  0  0  0  0  0  0  0  0  0  0
    0.2772   -4.9514    0.0000 C   0  0  0  0  0  0  0  0  0  0  0  0
    1.1782   -7.7005    0.0000 O   0  0  0  0  0  0  0  0  0  0  0  0
    3.7039   -1.3322    0.0000 C   0  0  0  0  0  0  0  0  0  0  0  0
    0.0000   -3.6500    0.0000 O   0  0  0  0  0  0  0  0  0  0  0  0
    3.7193    0.0000    0.0000 N   0  0  0  0  0  0  0  0  0  0  0  0
  1  2  1  1  0  0  0
  1  3  1  0  0  0  0
  1  4  1  0  0  0  0
  2  5  1  0  0  0  0
  2  6  1  0  0  0  0
  3  7  1  0  0  0  0
  4  8  1  0  0  0  0
  4  9  1  6  0  0  0
  5 10  1  0  0  0  0
  5 11  2  0  0  0  0
  6 12  2  0  0  0  0
  7 13  1  1  0  0  0
  7  8  1  0  0  0  0
  8 14  1  6  0  0  0
 10 15  2  0  0  0  0
 12 15  1  0  0  0  0
 13 16  1  0  0  0  0
 15 17  1  0  0  0  0
M  END
>  <ActivityOutcome_CPDBAS_Rat>
active

>  <cdk:Formula>
[]

>  <TD50_Rat_mmol>
0.000696

>  <net.bioclipse.cdk.fingerprint>
EMAGAYyIQAEiEQBCAA0gABAgERAAAFERgAACAABgAGAAAdBgBIQI0KDAgEAJAAF8ZELigQIggBAgAABAwqMIAMCIgUFMEABAgCAACAgAAICBIURCIOxEZGCIERQAAEqIgADgAIABAZCQAEAwABAQgSAAEAAAQHQOACgIUAQCAIE=

$$$$

 OpenBabel04131118512D

 12 11  0  0  0  0  0  0  0  0999 V2000
    2.6605    0.0000    0.0000 O   0  0  0  0  0  0  0  0  0  0  0  0
    3.3256   -1.1488    0.0000 C   0  0  0  0  0  0  0  0  0  0  0  0
    4.6472   -1.1488    0.0000 O   0  0  0  0  0  0  0  0  0  0  0  0
    5.3123   -2.3063    0.0000 C   0  0  0  0  0  0  0  0  0  0  0  0
    6.6426   -2.3063    0.0000 C   0  0  1  0  0  0  0  0  0  0  0  0
    7.3077   -3.4552    0.0000 C   0  0  0  0  0  0  0  0  0  0  0  0
    6.6426   -4.6040    0.0000 O   0  0  0  0  0  0  0  0  0  0  0  0
    8.6380   -3.4552    0.0000 O   0  0  0  0  0  0  0  0  0  0  0  0
    7.3077   -1.1488    0.0000 N   0  0  0  0  0  0  0  0  0  0  0  0
    2.6605   -2.3063    0.0000 C   0  0  0  0  0  0  0  0  0  0  0  0
    1.3302   -2.3063    0.0000 N   0  3  0  0  0  0  0  0  0  0  0  0
    0.0000   -2.3063    0.0000 N   0  5  0  0  0  0  0  0  0  0  0  0
  1  2  2  0  0  0  0
  2  3  1  0  0  0  0
  2 10  1  0  0  0  0
  3  4  1  0  0  0  0
  4  5  1  0  0  0  0
  5  6  1  0  0  0  0
  5  9  1  6  0  0  0
  6  7  2  0  0  0  0
  6  8  1  0  0  0  0
 10 11  2  0  0  0  0
 11 12  2  0  0  0  0
M  CHG  2  11   1  12  -1
M  END
>  <ActivityOutcome_CPDBAS_Rat>
active

>  <cdk:Formula>
[]

>  <TD50_Rat_mmol>
0.00458

>  <net.bioclipse.cdk.fingerprint>
AICIAAEAQAACAAACAAAABAAAAAAAAAgAgAAAQIAAAAAgCgBgAIAAAAAAAAAAAABYZAIAAAAIAAAAAAACQAAAABAAAAAAAAAAAAAAAAAAAAAAAAEAAAAAQAAAEAAIAAIAAARABAAAAgAAAgAAMQAAEYAAAAAAUCEQAAAABAACAAA=

$$$$

 OpenBabel04131118512D

 14 15  0  0  0  0  0  0  0  0999 V2000
    4.6497   -2.3075    0.0000 N   0  0  0  0  0  0  0  0  0  0  0  0
    3.9928   -1.1581    0.0000 N   0  0  0  0  0  0  0  0  0  0  0  0
    2.6619   -1.1581    0.0000 C   0  0  0  0  0  0  0  0  0  0  0  0
    1.9964   -2.3075    0.0000 C   0  0  0  0  0  0  0  0  0  0  0  0
    0.6655   -2.3075    0.0000 C   0  0  0  0  0  0  0  0  0  0  0  0
    0.0000   -1.1581    0.0000 C   0  0  0  0  0  0  0  0  0  0  0  0
    0.6655    0.0000    0.0000 C   0  0  0  0  0  0  0  0  0  0  0  0
    1.9964    0.0000    0.0000 C   0  0  0  0  0  0  0  0  0  0  0  0
    5.9806   -2.3075    0.0000 C   0  0  0  0  0  0  0  0  0  0  0  0
    6.6461   -1.1581    0.0000 C   0  0  0  0  0  0  0  0  0  0  0  0
    7.9770   -1.1581    0.0000 C   0  0  0  0  0  0  0  0  0  0  0  0
    8.6425   -2.3075    0.0000 C   0  0  0  0  0  0  0  0  0  0  0  0
    7.9770   -3.4570    0.0000 C   0  0  0  0  0  0  0  0  0  0  0  0
    6.6461   -3.4570    0.0000 C   0  0  0  0  0  0  0  0  0  0  0  0
  1  2  2  0  0  0  0
  1  9  1  0  0  0  0
  2  3  1  0  0  0  0
  3  4  2  0  0  0  0
  3  8  1  0  0  0  0
  4  5  1  0  0  0  0
  5  6  2  0  0  0  0
  6  7  1  0  0  0  0
  7  8  2  0  0  0  0
  9 10  2  0  0  0  0
  9 14  1  0  0  0  0
 10 11  1  0  0  0  0
 11 12  2  0  0  0  0
 12 13  1  0  0  0  0
 13 14  2  0  0  0  0
M  END
>  <ActivityOutcome_CPDBAS_Rat>
active

>  <cdk:Formula>
[]

>  <TD50_Rat_mmol>
0.132

>  <net.bioclipse.cdk.fingerprint>
QAAgAAAAAAAAAAIAAAABAABAAABACAAEAAIAAABoEAAAAAAAAAAAAAAAAAAAAAAAAABAAAAAAAAAEAAAAAIAAAAAIAAAAQAAAAAAAAAAAAAAAAAgAAAAAAAAIAAAAAAgAAAgAAACAAAACABAAACAAAIAAAAQAAADEAA=

$$$$

 OpenBabel04131118512D

  5  4  0  0  0  0  0  0  0  0999 V2000
    0.0000   -1.9945    0.0000 C   0  0  0  0  0  0  0  0  0  0  0  0
    1.1511   -1.3308    0.0000 N   0  3  0  0  0  0  0  0  0  0  0  0
    2.3056   -1.9945    0.0000 N   0  0  0  0  0  0  0  0  0  0  0  0
    3.4567   -1.3308    0.0000 C   0  0  0  0  0  0  0  0  0  0  0  0
    1.1511    0.0000    0.0000 O   0  5  0  0  0  0  0  0  0  0  0  0
  1  2  1  0  0  0  0
  2  3  2  0  0  0  0
  2  5  1  0  0  0  0
  3  4  1  0  0  0  0
M  CHG  2   2   1   5  -1
M  END
>  <ActivityOutcome_CPDBAS_Rat>
active

>  <cdk:Formula>
[]

>  <TD50_Rat_mmol>
0.000629

>  <net.bioclipse.cdk.fingerprint>
QAAAAAAIAAAAAAAAAAAAAAAAAAAAAAAAAAAAAABgAAAAAAAAAAAAAAAAAAAAgAIAAAAAAAQAAAAAEAAAAAAAAAAAAAAAAAAAAAAAAAAAAAAAAAAAAAAAAAAAAAAAAAAAAAAAAAAAAAAAAAAAAAAAAAAAAAAQAAACAAA=

$$$$

 OpenBabel04131118512D

  9  8  0  0  0  0  0  0  0  0999 V2000
    2.6600   -1.1571    0.0000 N   0  3  0  0  0  0  0  0  0  0  0  0
    3.9901   -1.1571    0.0000 N   0  0  0  0  0  0  0  0  0  0  0  0
    4.6551   -2.3076    0.0000 C   0  0  0  0  0  0  0  0  0  0  0  0
    5.9851   -2.3076    0.0000 C   0  0  0  0  0  0  0  0  0  0  0  0
    6.6501   -3.4580    0.0000 C   0  0  0  0  0  0  0  0  0  0  0  0
    1.9950   -2.3076    0.0000 C   0  0  0  0  0  0  0  0  0  0  0  0
    0.6650   -2.3076    0.0000 C   0  0  0  0  0  0  0  0  0  0  0  0
    0.0000   -3.4580    0.0000 C   0  0  0  0  0  0  0  0  0  0  0  0
    1.9950    0.0000    0.0000 O   0  5  0  0  0  0  0  0  0  0  0  0
  1  2  2  0  0  0  0
  1  6  1  0  0  0  0
  1  9  1  0  0  0  0
  2  3  1  0  0  0  0
  3  4  1  0  0  0  0
  4  5  1  0  0  0  0
  6  7  1  0  0  0  0
  7  8  1  0  0  0  0
M  CHG  2   1   1   9  -1
M  END
>  <ActivityOutcome_CPDBAS_Rat>
active

>  <cdk:Formula>
[]

>  <TD50_Rat_mmol>
0.00000185

>  <net.bioclipse.cdk.fingerprint>
QAAiAAAIAAEAAAAAAAAAAAAAAAAAAAAAAAAAAEBhAAAAAAAAAAAAAAAAIAAAgAIAAAAgAIQAQAAgEAAAAAAAAAAAAAABAAAAAABAAAQgAAAAAAAAAAAAAAAAAAAAAAAAAAAAAAAAAAAAAAAAAAAAAEAAAAAQAAACAAA=

$$$$

 OpenBabel04131118512D

  9  8  0  0  0  0  0  0  0  0999 V2000
    2.3049   -1.9937    0.0000 N   0  3  0  0  0  0  0  0  0  0  0  0
    3.4573   -1.3311    0.0000 N   0  0  0  0  0  0  0  0  0  0  0  0
    4.6097   -1.9937    0.0000 C   0  0  0  0  0  0  0  0  0  0  0  0
    5.7622   -1.3311    0.0000 C   0  0  0  0  0  0  0  0  0  0  0  0
    4.6097   -3.3248    0.0000 C   0  0  0  0  0  0  0  0  0  0  0  0
    1.1524   -1.3311    0.0000 C   0  0  0  0  0  0  0  0  0  0  0  0
    1.1524    0.0000    0.0000 C   0  0  0  0  0  0  0  0  0  0  0  0
    0.0000   -1.9937    0.0000 C   0  0  0  0  0  0  0  0  0  0  0  0
    2.3049   -3.3248    0.0000 O   0  5  0  0  0  0  0  0  0  0  0  0
  1  2  2  0  0  0  0
  1  6  1  0  0  0  0
  1  9  1  0  0  0  0
  2  3  1  0  0  0  0
  3  4  1  0  0  0  0
  3  5  1  0  0  0  0
  6  7  1  0  0  0  0
  6  8  1  0  0  0  0
M  CHG  2   1   1   9  -1
M  END
>  <ActivityOutcome_CPDBAS_Rat>
active

>  <cdk:Formula>
[]

>  <TD50_Rat_mmol>
0.0000206

>  <net.bioclipse.cdk.fingerprint>
QAAiAAAIAAAAAAAAAAAAAAAAAAAAAAAAAAAAAABgAAAAAAAAAAAAAAAAIAAAgAIAAAAgAAQAQAAgEAAAAAAAAAAAAAAAAAAAAAAAAAQAAAAAAAAAAAAAAAAAAAAAAAAAAAAAAAAAAAAAAAAAAAAAAEAAAAAQAAACAAA=

$$$$

 OpenBabel04131118512D

 19 20  0  0  0  0  0  0  0  0999 V2000
    5.4706    4.8291    0.0000 N   0  0  0  0  0  0  0  0  0  0  0  0
    4.2859    5.5417    0.0000 C   0  0  0  0  0  0  0  0  0  0  0  0
    4.2859    6.8779    0.0000 N   0  0  0  0  0  0  0  0  0  0  0  0
    6.6554    5.5595    0.0000 C   0  0  0  0  0  0  0  0  0  0  0  0
    6.6554    6.8779    0.0000 C   0  0  0  0  0  0  0  0  0  0  0  0
    5.4706    7.5638    0.0000 C   0  0  0  0  0  0  0  0  0  0  0  0
    3.1101    4.8024    0.0000 O   0  0  0  0  0  0  0  0  0  0  0  0
    5.4706    8.9088    0.0000 O   0  0  0  0  0  0  0  0  0  0  0  0
    7.9114    7.5994    0.0000 C   0  0  0  0  0  0  0  0  0  0  0  0
    5.4706    2.4952    0.0000 C   0  0  2  0  0  0  0  0  0  0  0  0
    3.1991    2.4952    0.0000 C   0  0  1  0  0  0  0  0  0  0  0  0
    4.3483    3.3415    0.0000 O   0  0  0  0  0  0  0  0  0  0  0  0
    3.6267    1.1502    0.0000 C   0  0  2  0  0  0  0  0  0  0  0  0
    5.0431    1.1502    0.0000 C   0  0  0  0  0  0  0  0  0  0  0  0
    1.4119    0.0152    0.0000 N   0  3  0  0  0  0  0  0  0  0  0  0
    0.0000    0.0212    0.0000 N   0  5  0  0  0  0  0  0  0  0  0  0
    2.8073    0.0000    0.0000 N   0  0  0  0  0  0  0  0  0  0  0  0
    1.8719    2.9406    0.0000 C   0  0  0  0  0  0  0  0  0  0  0  0
    1.5690    4.3035    0.0000 O   0  0  0  0  0  0  0  0  0  0  0  0
  2  1  1  0  0  0  0
  3  2  1  0  0  0  0
  4  1  1  0  0  0  0
  5  4  2  0  0  0  0
  6  3  1  0  0  0  0
  6  5  1  0  0  0  0
  7  2  2  0  0  0  0
  8  6  2  0  0  0  0
  9  5  1  0  0  0  0
 10  1  1  1  0  0  0
 11 18  1  1  0  0  0
 12 10  1  0  0  0  0
 12 11  1  0  0  0  0
 13 11  1  0  0  0  0
 13 17  1  6  0  0  0
 14 10  1  0  0  0  0
 14 13  1  0  0  0  0
 16 15  2  0  0  0  0
 17 15  2  0  0  0  0
 19 18  1  0  0  0  0
M  CHG  2  15   1  16  -1
M  END
>  <ActivityOutcome_CPDBAS_Rat>
active

>  <cdk:Formula>
[]

>  <TD50_Rat_mmol>
43.4

>  <net.bioclipse.cdk.fingerprint>
RMAmQYMwSAAiEADKAAEQABGC0AAAgWFBiCAACwHBAABDIxBgR8QIiIEAoAARhgFYIKpiQAIRkAomACpAwCMAEIAgBQYJRAFBECkAAQBAAIGBAOAwJO1ASFBoEZQgEEgEEELkSAEDwBICgkAgABCgATIAUApkdFIEAWAAUQgKIIA=

$$$$

 OpenBabel04131118512D

 21 23  0  0  0  0  0  0  0  0999 V2000
    4.6025   -3.9858    0.0000 C   0  0  0  0  0  0  0  0  0  0  0  0
    3.4427   -3.3230    0.0000 C   0  0  0  0  0  0  0  0  0  0  0  0
    5.7440   -3.3230    0.0000 C   0  0  0  0  0  0  0  0  0  0  0  0
    4.6025   -5.3113    0.0000 C   0  0  0  0  0  0  0  0  0  0  0  0
    2.3013   -3.9858    0.0000 C   0  0  0  0  0  0  0  0  0  0  0  0
    3.4427   -1.9975    0.0000 N   0  0  0  0  0  0  0  0  0  0  0  0
    5.7440   -1.9975    0.0000 N   0  0  0  0  0  0  0  0  0  0  0  0
    7.0143   -3.7373    0.0000 N   0  0  0  0  0  0  0  0  0  0  0  0
    5.7440   -5.9833    0.0000 C   0  0  0  0  0  0  0  0  0  0  0  0
    2.3013   -5.3113    0.0000 C   0  0  0  0  0  0  0  0  0  0  0  0
    1.1414   -3.3230    0.0000 C   0  0  0  0  0  0  0  0  0  0  0  0
    4.6025   -1.3255    0.0000 C   0  0  0  0  0  0  0  0  0  0  0  0
    7.0143   -1.5833    0.0000 N   0  0  0  0  0  0  0  0  0  0  0  0
    7.8059   -2.6511    0.0000 C   0  0  0  0  0  0  0  0  0  0  0  0
    6.9038   -5.3113    0.0000 O   0  0  0  0  0  0  0  0  0  0  0  0
    1.1414   -5.9833    0.0000 C   0  0  0  0  0  0  0  0  0  0  0  0
    0.0000   -3.9858    0.0000 C   0  0  0  0  0  0  0  0  0  0  0  0
    4.6025    0.0000    0.0000 N   0  0  0  0  0  0  0  0  0  0  0  0
    8.0452   -5.9833    0.0000 C   0  0  0  0  0  0  0  0  0  0  0  0
    0.0000   -5.3113    0.0000 C   0  0  0  0  0  0  0  0  0  0  0  0
    9.2051   -5.3113    0.0000 C   0  0  0  0  0  0  0  0  0  0  0  0
  1  2  2  0  0  0  0
  1  3  1  0  0  0  0
  1  4  1  0  0  0  0
  2  5  1  0  0  0  0
  2  6  1  0  0  0  0
  3  7  1  0  0  0  0
  3  8  2  0  0  0  0
  4  9  1  0  0  0  0
  5 10  2  0  0  0  0
  5 11  1  0  0  0  0
  6 12  2  0  0  0  0
  7 13  1  0  0  0  0
  7 12  1  0  0  0  0
  8 14  1  0  0  0  0
  9 15  1  0  0  0  0
 10 16  1  0  0  0  0
 11 17  2  0  0  0  0
 12 18  1  0  0  0  0
 13 14  2  0  0  0  0
 15 19  1  0  0  0  0
 16 20  2  0  0  0  0
 17 20  1  0  0  0  0
 19 21  1  0  0  0  0
M  END
>  <ActivityOutcome_CPDBAS_Rat>
active

>  <cdk:Formula>
[]

>  <TD50_Rat_mmol>
1.93

>  <net.bioclipse.cdk.fingerprint>
CKAAgkmKIk0AYICKAEQAgSaCQmEADgDAoAyISQMYDAIkQITpwYhJAEGIEACUAA6QqGIIgB1CjABAAAQAQCAQAYEEBEAUBIAAwUBEAUIMHAACAICDpAGQazSAEoGgBIgAIAABAEggEHZFCEEG/AmhAAoEDCiAgwggEAgYCoICeQI=

$$$$

 OpenBabel04131118512D

  6  6  0  0  0  0  0  0  0  0999 V2000
    2.3036   -1.9950    0.0000 C   0  0  0  0  0  0  0  0  0  0  0  0
    1.1518   -2.6600    0.0000 C   0  0  0  0  0  0  0  0  0  0  0  0
    0.0000   -1.9950    0.0000 C   0  0  0  0  0  0  0  0  0  0  0  0
    0.0000   -0.6650    0.0000 C   0  0  0  0  0  0  0  0  0  0  0  0
    1.1518    0.0000    0.0000 C   0  0  0  0  0  0  0  0  0  0  0  0
    2.3036   -0.6650    0.0000 C   0  0  0  0  0  0  0  0  0  0  0  0
  1  2  2  0  0  0  0
  1  6  1  0  0  0  0
  2  3  1  0  0  0  0
  3  4  2  0  0  0  0
  4  5  1  0  0  0  0
  5  6  2  0  0  0  0
M  END
>  <ActivityOutcome_CPDBAS_Rat>
active

>  <cdk:Formula>
[]

>  <TD50_Rat_mmol>
2.16

>  <net.bioclipse.cdk.fingerprint>
QAAAAAAAAAAAAAAAAAAAAAAAAAAAQAAAAAAAAAAAAAAAAAAAAAAAAAAAAAAAAAAAAAAAAAAAAAAAAAAAACAAAAAAIAAAAAAAAgAAAAAAAAAAgAAAAAAAAAAAAAAA

$$$$

 OpenBabel04131118512D

 14 15  0  0  0  0  0  0  0  0999 V2000
    9.3153   -1.1458    0.0000 N   0  0  0  0  0  0  0  0  0  0  0  0
    7.9832   -1.1458    0.0000 C   0  0  0  0  0  0  0  0  0  0  0  0
    7.3218   -2.3009    0.0000 C   0  0  0  0  0  0  0  0  0  0  0  0
    5.9897   -2.3009    0.0000 C   0  0  0  0  0  0  0  0  0  0  0  0
    5.3190   -1.1458    0.0000 C   0  0  0  0  0  0  0  0  0  0  0  0
    3.9963   -1.1458    0.0000 C   0  0  0  0  0  0  0  0  0  0  0  0
    3.3256   -2.3009    0.0000 C   0  0  0  0  0  0  0  0  0  0  0  0
    1.9935   -2.3009    0.0000 C   0  0  0  0  0  0  0  0  0  0  0  0
    1.3321   -1.1458    0.0000 C   0  0  0  0  0  0  0  0  0  0  0  0
    0.0000   -1.1458    0.0000 N   0  0  0  0  0  0  0  0  0  0  0  0
    1.9935    0.0000    0.0000 C   0  0  0  0  0  0  0  0  0  0  0  0
    3.3256    0.0000    0.0000 C   0  0  0  0  0  0  0  0  0  0  0  0
    5.9897    0.0000    0.0000 C   0  0  0  0  0  0  0  0  0  0  0  0
    7.3218    0.0000    0.0000 C   0  0  0  0  0  0  0  0  0  0  0  0
  1  2  1  0  0  0  0
  2  3  2  0  0  0  0
  2 14  1  0  0  0  0
  3  4  1  0  0  0  0
  4  5  2  0  0  0  0
  5  6  1  0  0  0  0
  5 13  1  0  0  0  0
  6  7  2  0  0  0  0
  6 12  1  0  0  0  0
  7  8  1  0  0  0  0
  8  9  2  0  0  0  0
  9 10  1  0  0  0  0
  9 11  1  0  0  0  0
 11 12  2  0  0  0  0
 13 14  2  0  0  0  0
M  END
>  <ActivityOutcome_CPDBAS_Rat>
active

>  <cdk:Formula>
[]

>  <TD50_Rat_mmol>
0.00939

>  <net.bioclipse.cdk.fingerprint>
IAQAAAAAAAAAAAAAABAAQUAAAAACBAADAAAAYAAAAAAAAAAAAAAAACAAAAAAAAQAQAAAAAAAAAAABAAAAAAAAAAAAAAAAABAAAAAAAAAAAAAgAAAAACAACAAAABAIAAAAABAAkABAAAAAAAIgIAAABAICAAAAhAA

$$$$

 OpenBabel04131118512D

 20 24  0  0  0  0  0  0  0  0999 V2000
    4.6494    0.0000    0.0000 C   0  0  0  0  0  0  0  0  0  0  0  0
    5.9803    0.0000    0.0000 C   0  0  0  0  0  0  0  0  0  0  0  0
    6.6457   -1.1494    0.0000 C   0  0  0  0  0  0  0  0  0  0  0  0
    7.9766   -1.1494    0.0000 C   0  0  0  0  0  0  0  0  0  0  0  0
    8.6421   -2.3074    0.0000 C   0  0  0  0  0  0  0  0  0  0  0  0
    7.9766   -3.4568    0.0000 C   0  0  0  0  0  0  0  0  0  0  0  0
    6.6457   -3.4568    0.0000 C   0  0  0  0  0  0  0  0  0  0  0  0
    5.9803   -4.6062    0.0000 C   0  0  0  0  0  0  0  0  0  0  0  0
    4.6494   -4.6062    0.0000 C   0  0  0  0  0  0  0  0  0  0  0  0
    3.9926   -3.4568    0.0000 C   0  0  0  0  0  0  0  0  0  0  0  0
    4.6494   -2.3074    0.0000 C   0  0  0  0  0  0  0  0  0  0  0  0
    5.9803   -2.3074    0.0000 C   0  0  0  0  0  0  0  0  0  0  0  0
    3.9926   -1.1494    0.0000 C   0  0  0  0  0  0  0  0  0  0  0  0
    2.6618   -1.1494    0.0000 C   0  0  0  0  0  0  0  0  0  0  0  0
    1.9963   -2.3074    0.0000 C   0  0  0  0  0  0  0  0  0  0  0  0
    2.6618   -3.4568    0.0000 C   0  0  0  0  0  0  0  0  0  0  0  0
    0.6654   -2.3074    0.0000 C   0  0  0  0  0  0  0  0  0  0  0  0
    0.0000   -1.1494    0.0000 C   0  0  0  0  0  0  0  0  0  0  0  0
    0.6654    0.0000    0.0000 C   0  0  0  0  0  0  0  0  0  0  0  0
    1.9963    0.0000    0.0000 C   0  0  0  0  0  0  0  0  0  0  0  0
  1  2  2  0  0  0  0
  1 13  1  0  0  0  0
  2  3  1  0  0  0  0
  3  4  2  0  0  0  0
  3 12  1  0  0  0  0
  4  5  1  0  0  0  0
  5  6  2  0  0  0  0
  6  7  1  0  0  0  0
  7  8  2  0  0  0  0
  7 12  1  0  0  0  0
  8  9  1  0  0  0  0
  9 10  2  0  0  0  0
 10 11  1  0  0  0  0
 10 16  1  0  0  0  0
 11 12  2  0  0  0  0
 11 13  1  0  0  0  0
 13 14  2  0  0  0  0
 14 15  1  0  0  0  0
 14 20  1  0  0  0  0
 15 16  2  0  0  0  0
 15 17  1  0  0  0  0
 17 18  2  0  0  0  0
 18 19  1  0  0  0  0
 19 20  2  0  0  0  0
M  END
>  <ActivityOutcome_CPDBAS_Rat>
active

>  <cdk:Formula>
[]

>  <TD50_Rat_mmol>
0.00379

>  <net.bioclipse.cdk.fingerprint>
QAAAAAAAAAAAAAAAAAAAAAAAAAAAQAAAAACAAAAAAAAAAACAAAAAAAAAAAAAAAAAAAAAAAAAAAAAAAAAACAAAAAAIAAAAAAAAgAAAAAAAAAAgAAAAEAAAAAAAAAA

$$$$

 OpenBabel04131118512D

  9 10  0  0  0  0  0  0  0  0999 V2000
    0.7831   -0.2523    0.0000 C   0  0  0  0  0  0  0  0  0  0  0  0
    0.0000   -1.3269    0.0000 C   0  0  0  0  0  0  0  0  0  0  0  0
    0.7831   -2.4059    0.0000 O   0  0  0  0  0  0  0  0  0  0  0  0
    2.0448   -1.9926    0.0000 C   0  0  0  0  0  0  0  0  0  0  0  0
    2.0448   -0.6613    0.0000 C   0  0  0  0  0  0  0  0  0  0  0  0
    3.1977    0.0000    0.0000 C   0  0  0  0  0  0  0  0  0  0  0  0
    4.3506   -0.6613    0.0000 C   0  0  0  0  0  0  0  0  0  0  0  0
    4.3506   -1.9926    0.0000 C   0  0  0  0  0  0  0  0  0  0  0  0
    3.1977   -2.6582    0.0000 C   0  0  0  0  0  0  0  0  0  0  0  0
  1  2  2  0  0  0  0
  1  5  1  0  0  0  0
  2  3  1  0  0  0  0
  3  4  1  0  0  0  0
  4  5  2  0  0  0  0
  4  9  1  0  0  0  0
  5  6  1  0  0  0  0
  6  7  2  0  0  0  0
  7  8  1  0  0  0  0
  8  9  2  0  0  0  0
M  END
>  <ActivityOutcome_CPDBAS_Rat>
active

>  <cdk:Formula>
[]

>  <TD50_Rat_mmol>
3.59

>  <net.bioclipse.cdk.fingerprint>
AQQAAAAgAAAAACAAgAAAAqAAAAAAQAAAAAAAAAAAAAAAYAACAAAAAAAAAQABAAAASAAAAAAAQAAAAACAAAAAAAAAAAKAAAAAAAAAAAAAAAACAAAABAAAAAAAAAAAACAAQACQIAgAAAACAgAAAAAAAAAAgAAAAAAAAABAAAAB

$$$$

 OpenBabel04131118512D

 17 18  0  0  0  0  0  0  0  0999 V2000
    0.1196   -7.4749    0.0000 O   0  5  0  0  0  0  0  0  0  0  0  0
    1.9659   -5.9800    0.0000 C   0  0  0  0  0  0  0  0  0  0  0  0
    0.6578   -6.2565    0.0000 C   0  0  0  0  0  0  0  0  0  0  0  0
    2.1079   -4.6569    0.0000 N   0  3  0  0  0  0  0  0  0  0  0  0
    0.0000   -5.1054    0.0000 O   0  0  0  0  0  0  0  0  0  0  0  0
    0.8895   -4.1187    0.0000 N   0  0  0  0  0  0  0  0  0  0  0  0
    4.3953   -0.6578    0.0000 C   0  0  0  0  0  0  0  0  0  0  0  0
    4.3953   -1.9958    0.0000 C   0  0  0  0  0  0  0  0  0  0  0  0
    3.2591    0.0000    0.0000 C   0  0  0  0  0  0  0  0  0  0  0  0
    3.2591   -2.6611    0.0000 C   0  0  0  0  0  0  0  0  0  0  0  0
    2.1079   -0.6578    0.0000 C   0  0  0  0  0  0  0  0  0  0  0  0
    2.1079   -1.9958    0.0000 C   0  0  0  0  0  0  0  0  0  0  0  0
    3.2591   -3.9991    0.0000 C   0  0  0  0  0  0  0  0  0  0  0  0
    2.9526   -6.8770    0.0000 C   0  0  0  0  0  0  0  0  0  0  0  0
    4.2159   -6.4584    0.0000 C   0  0  0  0  0  0  0  0  0  0  0  0
    5.1951   -7.3553    0.0000 O   0  0  0  0  0  0  0  0  0  0  0  0
    4.4924   -5.1502    0.0000 N   0  0  0  0  0  0  0  0  0  0  0  0
  1  3  1  0  0  0  0
  2  3  2  0  0  0  0
  2  4  1  0  0  0  0
  2 14  1  0  0  0  0
  3  5  1  0  0  0  0
  4  6  2  0  0  0  0
  4 13  1  0  0  0  0
  5  6  1  0  0  0  0
  7  8  1  0  0  0  0
  7  9  2  0  0  0  0
  8 10  2  0  0  0  0
  9 11  1  0  0  0  0
 10 12  1  0  0  0  0
 10 13  1  0  0  0  0
 11 12  2  0  0  0  0
 14 15  1  0  0  0  0
 15 16  2  0  0  0  0
 15 17  1  0  0  0  0
M  CHG  2   1  -1   4   1
M  END
>  <ActivityOutcome_CPDBAS_Rat>
active

>  <cdk:Formula>
[]

>  <TD50_Rat_mmol>
0.0182

>  <net.bioclipse.cdk.fingerprint>
BEACgIoBJeIAgiIhAYAAAKAgAIIAEgABAAgIBCCQJAIAAGQRABAgkCAAQUAAQAAgEYAgACAIAGAAAAJEJQoQgBQEqAAAABEACABBIBKICACAFiYCAQMAQKAIEIgTgQQgVEAAZCACQIQBMIJAImABQiAEAMBUIEABgAACKCIQAA==

$$$$

 OpenBabel04131118512D

  9  8  0  0  0  0  0  0  0  0999 V2000
    3.1476   -3.9893    0.0000 O   0  0  0  0  0  0  0  0  0  0  0  0
    1.9947   -3.3231    0.0000 C   0  0  0  0  0  0  0  0  0  0  0  0
    1.9947   -1.9947    0.0000 C   0  0  0  0  0  0  0  0  0  0  0  0
    0.6662   -1.9947    0.0000 C   0  0  0  0  0  0  0  0  0  0  0  0
    0.0000   -3.1476    0.0000 O   0  0  0  0  0  0  0  0  0  0  0  0
    1.9947   -0.6662    0.0000 C   0  0  0  0  0  0  0  0  0  0  0  0
    0.8417    0.0000    0.0000 Br  0  0  0  0  0  0  0  0  0  0  0  0
    3.3231   -1.9947    0.0000 C   0  0  0  0  0  0  0  0  0  0  0  0
    3.9893   -3.1476    0.0000 Br  0  0  0  0  0  0  0  0  0  0  0  0
  1  2  1  0  0  0  0
  2  3  1  0  0  0  0
  3  4  1  0  0  0  0
  3  6  1  0  0  0  0
  3  8  1  0  0  0  0
  4  5  1  0  0  0  0
  6  7  1  0  0  0  0
  8  9  1  0  0  0  0
M  END
>  <ActivityOutcome_CPDBAS_Rat>
active

>  <cdk:Formula>
[]

>  <TD50_Rat_mmol>
0.424

>  <net.bioclipse.cdk.fingerprint>
AgAAAAAAAAAAAAAAAgAAAAAAAACAAAAA4AAAAAAAAAAAAAAAECAAAAAAAAAAAAAAAEAAAAAAAAAAAAAAAAAAAAABAAAAAAAAAAAAAAAAABAAAAAAAAAAEQAAAAAAAAAAAAAAAAAAAAAAAAAgAAAAAAAAAAAA

$$$$

 OpenBabel04131118512D

  5  4  0  0  0  0  0  0  0  0999 V2000
    0.0000   -0.6638    0.0000 Cl  0  0  0  0  0  0  0  0  0  0  0  0
    1.1525    0.0000    0.0000 C   0  0  0  0  0  0  0  0  0  0  0  0
    2.3050   -0.6638    0.0000 O   0  0  0  0  0  0  0  0  0  0  0  0
    3.4575    0.0000    0.0000 C   0  0  0  0  0  0  0  0  0  0  0  0
    4.6099   -0.6638    0.0000 Cl  0  0  0  0  0  0  0  0  0  0  0  0
  1  2  1  0  0  0  0
  2  3  1  0  0  0  0
  3  4  1  0  0  0  0
  4  5  1  0  0  0  0
M  END
>  <ActivityOutcome_CPDBAS_Rat>
active

>  <cdk:Formula>
[]

>  <TD50_Rat_mmol>
0.0000311

>  <net.bioclipse.cdk.fingerprint>
AgAAAAAAAAAAAAAAAIAAAAAAAAAAAAAA4AAAAAAAAAAAAAAAAAAAAAAEAAAAAAAAAAAAAAEAAAAAAAAAAAAAAAAAAAAAAAAAAAAAAAAAAAAAAAAAAAAAAAAAAAAAAAAAAAAAABgAAAAAAAAAAAAAAAAAAAAA

$$$$

 OpenBabel04131118512D

 25 27  0  0  0  0  0  0  0  0999 V2000
    3.4518    0.0000    0.0000 C   0  0  0  0  0  0  0  0  0  0  0  0
    2.3080   -0.6740    0.0000 C   0  0  0  0  0  0  0  0  0  0  0  0
    2.3080   -2.0017    0.0000 C   0  0  0  0  0  0  0  0  0  0  0  0
    3.4518   -2.6655    0.0000 C   0  0  0  0  0  0  0  0  0  0  0  0
    4.6059   -2.0017    0.0000 C   0  0  0  0  0  0  0  0  0  0  0  0
    4.6059   -0.6740    0.0000 C   0  0  0  0  0  0  0  0  0  0  0  0
    5.7599   -2.6655    0.0000 N   0  0  0  0  0  0  0  0  0  0  0  0
    5.7599   -3.9931    0.0000 C   0  0  0  0  0  0  0  0  0  0  0  0
    4.6059   -4.6569    0.0000 N   0  0  0  0  0  0  0  0  0  0  0  0
    3.4518   -3.9931    0.0000 C   0  0  0  0  0  0  0  0  0  0  0  0
    2.3080   -4.6569    0.0000 N   0  0  0  0  0  0  0  0  0  0  0  0
    2.3080   -5.9845    0.0000 C   0  0  0  0  0  0  0  0  0  0  0  0
    1.1540   -6.6484    0.0000 C   0  0  0  0  0  0  0  0  0  0  0  0
    1.1540   -7.9862    0.0000 O   0  0  0  0  0  0  0  0  0  0  0  0
    1.1540   -3.9931    0.0000 C   0  0  0  0  0  0  0  0  0  0  0  0
    0.0000   -4.6569    0.0000 C   0  0  0  0  0  0  0  0  0  0  0  0
    0.0000   -5.9845    0.0000 O   0  0  0  0  0  0  0  0  0  0  0  0
    6.9139   -4.6569    0.0000 C   0  0  0  0  0  0  0  0  0  0  0  0
    8.1292   -4.1157    0.0000 C   0  0  0  0  0  0  0  0  0  0  0  0
    9.0177   -5.1063    0.0000 C   0  0  0  0  0  0  0  0  0  0  0  0
    8.3539   -6.2603    0.0000 C   0  0  0  0  0  0  0  0  0  0  0  0
    7.0467   -5.9845    0.0000 S   0  0  0  0  0  0  0  0  0  0  0  0
    8.8951   -7.4756    0.0000 N   0  3  0  0  0  0  0  0  0  0  0  0
   10.2125   -7.6083    0.0000 O   0  5  0  0  0  0  0  0  0  0  0  0
    8.1088   -8.5479    0.0000 O   0  0  0  0  0  0  0  0  0  0  0  0
  1  2  2  0  0  0  0
  1  6  1  0  0  0  0
  2  3  1  0  0  0  0
  3  4  2  0  0  0  0
  4  5  1  0  0  0  0
  4 10  1  0  0  0  0
  5  6  2  0  0  0  0
  5  7  1  0  0  0  0
  7  8  2  0  0  0  0
  8  9  1  0  0  0  0
  8 18  1  0  0  0  0
  9 10  2  0  0  0  0
 10 11  1  0  0  0  0
 11 12  1  0  0  0  0
 11 15  1  0  0  0  0
 12 13  1  0  0  0  0
 13 14  1  0  0  0  0
 15 16  1  0  0  0  0
 16 17  1  0  0  0  0
 18 19  2  0  0  0  0
 18 22  1  0  0  0  0
 19 20  1  0  0  0  0
 20 21  2  0  0  0  0
 21 22  1  0  0  0  0
 21 23  1  0  0  0  0
 23 24  1  0  0  0  0
 23 25  2  0  0  0  0
M  CHG  2  23   1  24  -1
M  END
>  <ActivityOutcome_CPDBAS_Rat>
active

>  <cdk:Formula>
[]

>  <TD50_Rat_mmol>
0.00871

>  <net.bioclipse.cdk.fingerprint>
IAVQQxiSKgVigFIOAAChKQAIACAAgbhBhQAAQAAUSCYQGYFiCQQAIIGMIAAAIAqIIITEAAogCoLDAYAMgI0JAGHIwEAEESQMgFkABICAoNAAAEDAgAEAHCSCMLRIUICMoEAUosQgCRDABGAiQIChQAAEEFKgASEiBIASlAaKmEI=

$$$$

 OpenBabel04131118512D

 20 22  0  0  0  0  0  0  0  0999 V2000
    3.4553    0.0000    0.0000 O   0  0  0  0  0  0  0  0  0  0  0  0
    3.4553   -1.3338    0.0000 C   0  0  0  0  0  0  0  0  0  0  0  0
    4.6094   -1.9972    0.0000 C   0  0  0  0  0  0  0  0  0  0  0  0
    4.6094   -3.3240    0.0000 C   0  0  0  0  0  0  0  0  0  0  0  0
    5.7566   -3.9943    0.0000 C   0  0  0  0  0  0  0  0  0  0  0  0
    6.9106   -3.3240    0.0000 C   0  0  0  0  0  0  0  0  0  0  0  0
    6.9106   -1.9972    0.0000 C   0  0  0  0  0  0  0  0  0  0  0  0
    5.7566   -1.3338    0.0000 C   0  0  0  0  0  0  0  0  0  0  0  0
    5.7566    0.0000    0.0000 N   0  0  0  0  0  0  0  0  0  0  0  0
    5.7566   -5.3212    0.0000 N   0  0  0  0  0  0  0  0  0  0  0  0
    3.4553   -3.9943    0.0000 C   0  0  0  0  0  0  0  0  0  0  0  0
    3.4553   -5.3212    0.0000 O   0  0  0  0  0  0  0  0  0  0  0  0
    2.3012   -3.3240    0.0000 C   0  0  0  0  0  0  0  0  0  0  0  0
    1.1541   -3.9943    0.0000 C   0  0  0  0  0  0  0  0  0  0  0  0
    0.0000   -3.3240    0.0000 C   0  0  0  0  0  0  0  0  0  0  0  0
    0.0000   -1.9972    0.0000 C   0  0  0  0  0  0  0  0  0  0  0  0
    1.1541   -1.3338    0.0000 C   0  0  0  0  0  0  0  0  0  0  0  0
    2.3012   -1.9972    0.0000 C   0  0  0  0  0  0  0  0  0  0  0  0
    1.1541    0.0000    0.0000 N   0  0  0  0  0  0  0  0  0  0  0  0
    1.1541   -5.3212    0.0000 N   0  0  0  0  0  0  0  0  0  0  0  0
  1  2  2  0  0  0  0
  2  3  1  0  0  0  0
  2 18  1  0  0  0  0
  3  4  2  0  0  0  0
  3  8  1  0  0  0  0
  4  5  1  0  0  0  0
  4 11  1  0  0  0  0
  5  6  2  0  0  0  0
  5 10  1  0  0  0  0
  6  7  1  0  0  0  0
  7  8  2  0  0  0  0
  8  9  1  0  0  0  0
 11 12  2  0  0  0  0
 11 13  1  0  0  0  0
 13 14  2  0  0  0  0
 13 18  1  0  0  0  0
 14 15  1  0  0  0  0
 14 20  1  0  0  0  0
 15 16  2  0  0  0  0
 16 17  1  0  0  0  0
 17 18  2  0  0  0  0
 17 19  1  0  0  0  0
M  END
>  <ActivityOutcome_CPDBAS_Rat>
active

>  <cdk:Formula>
[]

>  <TD50_Rat_mmol>
0.582

>  <net.bioclipse.cdk.fingerprint>
AgAIACAAACIBgYAAgCABEAEAIAACAEAQAAAABA5EAlgAAGgAQBEEAAAAAQIAAQBgAAQAAAEAAEABABBAAAAAAAQIAADAAEAAAAAAQABiAAgAAADAAIAAQIAAAAAIgAAgAEgAQCAAAAAAACJAICQAAAAUIIAQCkEoAAAAAAISAA==

$$$$

 OpenBabel04131118512D

 18 18  0  0  0  0  0  0  0  0999 V2000
    2.3034   -3.3262    0.0000 C   0  0  0  0  0  0  0  0  0  0  0  0
    2.3034   -1.9994    0.0000 C   0  0  0  0  0  0  0  0  0  0  0  0
    3.4552   -1.3360    0.0000 C   0  0  0  0  0  0  0  0  0  0  0  0
    4.6069   -1.9994    0.0000 C   0  0  0  0  0  0  0  0  0  0  0  0
    4.6069   -3.3262    0.0000 C   0  0  0  0  0  0  0  0  0  0  0  0
    3.4552   -3.9896    0.0000 C   0  0  0  0  0  0  0  0  0  0  0  0
    5.7586   -3.9896    0.0000 N   0  0  0  0  0  0  0  0  0  0  0  0
    6.9103   -3.3262    0.0000 C   0  0  0  0  0  0  0  0  0  0  0  0
    8.0620   -3.9896    0.0000 C   0  0  0  0  0  0  0  0  0  0  0  0
    9.2137   -3.3262    0.0000 O   0  0  0  0  0  0  0  0  0  0  0  0
    5.7586   -5.3255    0.0000 C   0  0  0  0  0  0  0  0  0  0  0  0
    6.9103   -5.9889    0.0000 C   0  0  0  0  0  0  0  0  0  0  0  0
    8.0620   -5.3255    0.0000 O   0  0  0  0  0  0  0  0  0  0  0  0
    1.1517   -1.3360    0.0000 N   0  0  0  0  0  0  0  0  0  0  0  0
    1.1517    0.0000    0.0000 C   0  0  0  0  0  0  0  0  0  0  0  0
    1.1517   -3.9896    0.0000 N   0  3  0  0  0  0  0  0  0  0  0  0
    0.0000   -3.3262    0.0000 O   0  5  0  0  0  0  0  0  0  0  0  0
    1.1517   -5.3255    0.0000 O   0  0  0  0  0  0  0  0  0  0  0  0
  1  2  2  0  0  0  0
  1  6  1  0  0  0  0
  1 16  1  0  0  0  0
  2  3  1  0  0  0  0
  2 14  1  0  0  0  0
  3  4  2  0  0  0  0
  4  5  1  0  0  0  0
  5  6  2  0  0  0  0
  5  7  1  0  0  0  0
  7  8  1  0  0  0  0
  7 11  1  0  0  0  0
  8  9  1  0  0  0  0
  9 10  1  0  0  0  0
 11 12  1  0  0  0  0
 12 13  1  0  0  0  0
 14 15  1  0  0  0  0
 16 17  1  0  0  0  0
 16 18  2  0  0  0  0
M  CHG  2  16   1  17  -1
M  END
>  <ActivityOutcome_CPDBAS_Rat>
active

>  <cdk:Formula>
[]

>  <TD50_Rat_mmol>
2.75

>  <net.bioclipse.cdk.fingerprint>
EAAQAwAQKgCACgAAAgQACAAAAAA4QBGAAAAABEEGAAAAYAEEAAAAAAAAIAAAiCAAJAACAIIAQgQAAIAEEABAAAAQEABAAQAAAAAQiICQAAAIQAAAIAQGABAQABAAACAAFAAAIAAAAEBgAiAAAAAAAAAEgAABEACAAAAAArCI

$$$$

 OpenBabel04131118512D

  4  3  0  0  0  0  0  0  0  0999 V2000
    1.9950    0.0000    0.0000 Cl  0  0  0  0  0  0  0  0  0  0  0  0
    1.3292   -1.1518    0.0000 C   0  0  0  0  0  0  0  0  0  0  0  0
    1.9950   -2.3037    0.0000 Cl  0  0  0  0  0  0  0  0  0  0  0  0
    0.0000   -1.1518    0.0000 Br  0  0  0  0  0  0  0  0  0  0  0  0
  1  2  1  0  0  0  0
  2  3  1  0  0  0  0
  2  4  1  0  0  0  0
M  END
>  <ActivityOutcome_CPDBAS_Rat>
active

>  <cdk:Formula>
[]

>  <TD50_Rat_mmol>
0.443

>  <net.bioclipse.cdk.fingerprint>
AQAAAADAAAAAAAAAAAAAAAAAAAAAAAQAAAAAAAAAAAAAAQAAAAAAAAAAAAAAAAEAAAAAAAAAAAAAAAAAAAAAAAAAAAAAAAAAAAAAAAAAAAAAAAAAAAAAAAAAAAAAAAAAAAA=

$$$$

 OpenBabel04131118512D

  3  2  0  0  0  0  0  0  0  0999 V2000
    2.3030   -0.6656    0.0000 C   0  0  0  0  0  0  0  0  0  0  0  0
    1.1515    0.0000    0.0000 C   0  0  0  0  0  0  0  0  0  0  0  0
    0.0000   -0.6656    0.0000 Br  0  0  0  0  0  0  0  0  0  0  0  0
  1  2  1  0  0  0  0
  2  3  1  0  0  0  0
M  END
>  <ActivityOutcome_CPDBAS_Rat>
active

>  <cdk:Formula>
[]

>  <TD50_Rat_mmol>
1.37

>  <net.bioclipse.cdk.fingerprint>
AIAAAADAAAAAAAAAAAAAAAAAIAAAAAAAAAAAAAAAAAAAAAAAAAAAAAAAAAAAAAEAAAAAAAAAAAAAAAAAAAAAAAAAAAAAAAAAAAAAAAAAAAAAAAAAAAAAAAAAAAAAAAAAAAA=

$$$$

 OpenBabel04131118512D

 31 35  0  0  0  0  0  0  0  0999 V2000
    8.4349   -3.4385    0.0000 C   0  0  1  0  0  0  0  0  0  0  0  0
    7.1156   -3.8596    0.0000 C   0  0  2  0  0  0  0  0  0  0  0  0
    9.2349   -4.4911    0.0000 C   0  0  1  0  0  0  0  0  0  0  0  0
    9.2349   -2.3859    0.0000 O   0  0  0  0  0  0  0  0  0  0  0  0
    8.0560   -2.1894    0.0000 C   0  0  0  0  0  0  0  0  0  0  0  0
    7.1156   -5.1367    0.0000 C   0  0  0  0  0  0  0  0  0  0  0  0
    5.9508   -3.2140    0.0000 C   0  0  0  0  0  0  0  0  0  0  0  0
    7.1718   -2.8491    0.0000 C   0  0  0  0  0  0  0  0  0  0  0  0
    8.4349   -5.5437    0.0000 C   0  0  0  0  0  0  0  0  0  0  0  0
   10.5401   -4.0841    0.0000 O   0  0  0  0  0  0  0  0  0  0  0  0
   10.5401   -2.7929    0.0000 C   0  0  1  0  0  0  0  0  0  0  0  0
    9.0103   -1.2351    0.0000 C   0  0  0  0  0  0  0  0  0  0  0  0
    6.7507   -1.8666    0.0000 O   0  0  0  0  0  0  0  0  0  0  0  0
    5.9508   -5.8104    0.0000 C   0  0  0  0  0  0  0  0  0  0  0  0
    4.7438   -3.8596    0.0000 C   0  0  1  0  0  0  0  0  0  0  0  0
   11.6489   -2.0210    0.0000 C   0  0  0  0  0  0  0  0  0  0  0  0
    8.6314    0.0000    0.0000 O   0  0  0  0  0  0  0  0  0  0  0  0
    4.7438   -5.1367    0.0000 C   0  0  0  0  0  0  0  0  0  0  0  0
    5.9508   -7.1016    0.0000 C   0  0  0  0  0  0  0  0  0  0  0  0
    3.5648   -3.2140    0.0000 O   0  0  0  0  0  0  0  0  0  0  0  0
   12.9120   -2.5543    0.0000 C   0  0  0  0  0  0  0  0  0  0  0  0
    3.5648   -5.8104    0.0000 C   0  0  2  0  0  0  0  0  0  0  0  0
    4.7438   -7.7612    0.0000 C   0  0  0  0  0  0  0  0  0  0  0  0
   14.0348   -1.7824    0.0000 C   0  0  0  0  0  0  0  0  0  0  0  0
    3.5648   -7.1016    0.0000 C   0  0  0  0  0  0  0  0  0  0  0  0
    2.3719   -5.1367    0.0000 C   0  0  0  0  0  0  0  0  0  0  0  0
    3.5648   -4.4911    0.0000 C   0  0  0  0  0  0  0  0  0  0  0  0
    2.3719   -7.7612    0.0000 C   0  0  0  0  0  0  0  0  0  0  0  0
    1.1789   -5.8104    0.0000 C   0  0  0  0  0  0  0  0  0  0  0  0
    1.1789   -7.1016    0.0000 C   0  0  0  0  0  0  0  0  0  0  0  0
    0.0000   -7.7612    0.0000 O   0  0  0  0  0  0  0  0  0  0  0  0
  1  2  1  0  0  0  0
  1  3  1  0  0  0  0
  1  4  1  6  0  0  0
  1  5  1  1  0  0  0
  2  6  1  0  0  0  0
  2  7  1  0  0  0  0
  2  8  1  1  0  0  0
  3  9  1  0  0  0  0
  3 10  1  6  0  0  0
  4 11  1  0  0  0  0
  5 12  1  0  0  0  0
  5 13  2  0  0  0  0
  6 14  1  0  0  0  0
  6  9  1  0  0  0  0
  7 15  1  0  0  0  0
 10 11  1  0  0  0  0
 11 16  1  6  0  0  0
 12 17  1  0  0  0  0
 14 18  1  0  0  0  0
 14 19  1  0  0  0  0
 15 20  1  1  0  0  0
 15 18  1  0  0  0  0
 16 21  1  0  0  0  0
 18 22  1  0  0  0  0
 19 23  1  0  0  0  0
 21 24  1  0  0  0  0
 22 25  1  0  0  0  0
 22 26  1  0  0  0  0
 22 27  1  1  0  0  0
 23 25  1  0  0  0  0
 25 28  2  0  0  0  0
 26 29  2  0  0  0  0
 28 30  1  0  0  0  0
 29 30  1  0  0  0  0
 30 31  2  0  0  0  0
M  END
>  <ActivityOutcome_CPDBAS_Rat>
active

>  <cdk:Formula>
[]

>  <TD50_Rat_mmol>
0.000676

>  <net.bioclipse.cdk.fingerprint>
AMAAIgABAAEQIJQDFQQEABAkAAqABEEAwAAAAEABAACRUQjgQIACAAAAAQEhEAEYJCJiAADIGABAABAiRGAEgAACAEEEQgHAAAUUAERAEQAAAAAIQCAEQARBEQAAAEIAAQBIQAAAQAEgAAAAoBAEAZAAAAgAsDggAAABRFYhACA=

$$$$

 OpenBabel04131118512D

  4  3  0  0  0  0  0  0  0  0999 V2000
    0.0000    0.0000    0.0000 C   0  0  0  0  0  0  0  0  0  0  0  0
    1.1513   -0.6638    0.0000 C   0  0  0  0  0  0  0  0  0  0  0  0
    2.3061    0.0000    0.0000 C   0  0  0  0  0  0  0  0  0  0  0  0
    3.4575   -0.6638    0.0000 C   0  0  0  0  0  0  0  0  0  0  0  0
  1  2  2  0  0  0  0
  2  3  1  0  0  0  0
  3  4  2  0  0  0  0
M  END
>  <ActivityOutcome_CPDBAS_Rat>
active

>  <cdk:Formula>
[]

>  <TD50_Rat_mmol>
4.83

>  <net.bioclipse.cdk.fingerprint>
QAAAAAAAAAAAAAAAAAAAAAAAAAAAAAAAAAAEAAAAAAAAAEAAAAAAAAAAAAAAAAAgAAAAAAAQAAAAAAAAAAAAAAAAAAAAAAAAAAAAAAAAAAAAAAAAAAAAAAAAAAAAAAAAAAAAAAAAAAAAAAAAAAAAAAAAAAAAAAAAAAAAAAAAAA==

$$$$

 OpenBabel04131118512D

  5  4  0  0  0  0  0  0  0  0999 V2000
    1.3300   -1.3300    0.0000 C   0  0  0  0  0  0  0  0  0  0  0  0
    1.3300   -2.6600    0.0000 C   0  0  0  0  0  0  0  0  0  0  0  0
    0.0000   -1.3300    0.0000 C   0  0  0  0  0  0  0  0  0  0  0  0
    1.3300    0.0000    0.0000 C   0  0  0  0  0  0  0  0  0  0  0  0
    2.6600   -1.3300    0.0000 O   0  0  0  0  0  0  0  0  0  0  0  0
  1  2  1  0  0  0  0
  1  3  1  0  0  0  0
  1  4  1  0  0  0  0
  1  5  1  0  0  0  0
M  END
>  <ActivityOutcome_CPDBAS_Rat>
active

>  <cdk:Formula>
[]

>  <TD50_Rat_mmol>
0.872

>  <net.bioclipse.cdk.fingerprint>
AgAAAAAAAAAAAAAAAAAAAAAAAAAAAAAAYAAAAAAAAAAAAAAAACAAAAAAAAAAAAAAAEAAAAAAAAAAAAAAAAAAAAAAAAAAAAAAAAAAAAAAABAAAAAAAAAAAAAAAAAAAAAAAAAAAAAAAAAAAAAAAAAAAAAAAAAA

$$$$

 OpenBabel04131118512D

 23 24  0  0  0  0  0  0  0  0999 V2000
    5.3142   -2.2980    0.0000 C   0  0  0  0  0  0  0  0  0  0  0  0
    3.9856   -2.2980    0.0000 C   0  0  0  0  0  0  0  0  0  0  0  0
    3.3273   -1.1490    0.0000 C   0  0  0  0  0  0  0  0  0  0  0  0
    3.9856    0.0000    0.0000 C   0  0  0  0  0  0  0  0  0  0  0  0
    5.3142    0.0000    0.0000 C   0  0  0  0  0  0  0  0  0  0  0  0
    5.9844   -1.1490    0.0000 C   0  0  0  0  0  0  0  0  0  0  0  0
    3.3273   -3.4470    0.0000 C   0  0  0  0  0  0  0  0  0  0  0  0
    3.9856   -4.6080    0.0000 O   0  0  0  0  0  0  0  0  0  0  0  0
    3.3273   -5.7570    0.0000 C   0  0  0  0  0  0  0  0  0  0  0  0
    1.9988   -5.7570    0.0000 C   0  0  0  0  0  0  0  0  0  0  0  0
    1.3285   -6.9060    0.0000 C   0  0  0  0  0  0  0  0  0  0  0  0
    0.0000   -6.9060    0.0000 C   0  0  0  0  0  0  0  0  0  0  0  0
    1.9988   -3.4470    0.0000 O   0  0  0  0  0  0  0  0  0  0  0  0
    5.9844   -3.4470    0.0000 C   0  0  0  0  0  0  0  0  0  0  0  0
    7.3130   -3.4470    0.0000 O   0  0  0  0  0  0  0  0  0  0  0  0
    7.9832   -4.6080    0.0000 C   0  0  0  0  0  0  0  0  0  0  0  0
    9.3118   -4.6080    0.0000 C   0  0  0  0  0  0  0  0  0  0  0  0
    9.9701   -3.4470    0.0000 C   0  0  0  0  0  0  0  0  0  0  0  0
   11.2986   -3.4470    0.0000 C   0  0  0  0  0  0  0  0  0  0  0  0
   11.9689   -4.6080    0.0000 C   0  0  0  0  0  0  0  0  0  0  0  0
   11.2986   -5.7570    0.0000 C   0  0  0  0  0  0  0  0  0  0  0  0
    9.9701   -5.7570    0.0000 C   0  0  0  0  0  0  0  0  0  0  0  0
    5.3142   -4.6080    0.0000 O   0  0  0  0  0  0  0  0  0  0  0  0
  1  2  2  0  0  0  0
  1  6  1  0  0  0  0
  1 14  1  0  0  0  0
  2  3  1  0  0  0  0
  2  7  1  0  0  0  0
  3  4  2  0  0  0  0
  4  5  1  0  0  0  0
  5  6  2  0  0  0  0
  7  8  1  0  0  0  0
  7 13  2  0  0  0  0
  8  9  1  0  0  0  0
  9 10  1  0  0  0  0
 10 11  1  0  0  0  0
 11 12  1  0  0  0  0
 14 15  1  0  0  0  0
 14 23  2  0  0  0  0
 15 16  1  0  0  0  0
 16 17  1  0  0  0  0
 17 18  2  0  0  0  0
 17 22  1  0  0  0  0
 18 19  1  0  0  0  0
 19 20  2  0  0  0  0
 20 21  1  0  0  0  0
 21 22  2  0  0  0  0
M  END
>  <ActivityOutcome_CPDBAS_Rat>
active

>  <cdk:Formula>
[]

>  <TD50_Rat_mmol>
3.33

>  <net.bioclipse.cdk.fingerprint>
AoCIgEAAAAAAAoACAAAAABABAACAAAAAgAAAAIAAAAAQAABoAIAABAgACAIAgBBQIAIgAAAAgCBAAAAQQAAAAAAMAAABAAAAAAAAAEIAAAAQAgAAIACAQACAEEAAKICAIIBAQUAgBAAAEAACQRgECACAEAygUBhASBEAcQAAIAA=

$$$$

 OpenBabel04131118512D

 12 11  0  0  0  0  0  0  0  0999 V2000
    1.9982   -5.7596    0.0000 N   0  0  0  0  0  0  0  0  0  0  0  0
    2.6620   -4.6118    0.0000 C   0  0  0  0  0  0  0  0  0  0  0  0
    1.9982   -3.4571    0.0000 C   0  0  0  0  0  0  0  0  0  0  0  0
    2.6620   -2.3025    0.0000 C   0  0  0  0  0  0  0  0  0  0  0  0
    1.9982   -1.1547    0.0000 C   0  0  0  0  0  0  0  0  0  0  0  0
    2.6620    0.0000    0.0000 O   0  0  0  0  0  0  0  0  0  0  0  0
    2.6620   -6.9143    0.0000 C   0  0  0  0  0  0  0  0  0  0  0  0
    3.9895   -6.9143    0.0000 C   0  0  0  0  0  0  0  0  0  0  0  0
    4.6602   -5.7596    0.0000 C   0  0  0  0  0  0  0  0  0  0  0  0
    5.9878   -5.7596    0.0000 C   0  0  0  0  0  0  0  0  0  0  0  0
    0.6638   -5.7596    0.0000 N   0  0  0  0  0  0  0  0  0  0  0  0
    0.0000   -4.6118    0.0000 O   0  0  0  0  0  0  0  0  0  0  0  0
  1  2  1  0  0  0  0
  1  7  1  0  0  0  0
  1 11  1  0  0  0  0
  2  3  1  0  0  0  0
  3  4  1  0  0  0  0
  4  5  1  0  0  0  0
  5  6  1  0  0  0  0
  7  8  1  0  0  0  0
  8  9  1  0  0  0  0
  9 10  1  0  0  0  0
 11 12  2  0  0  0  0
M  END
>  <ActivityOutcome_CPDBAS_Rat>
active

>  <cdk:Formula>
[]

>  <TD50_Rat_mmol>
0.00262

>  <net.bioclipse.cdk.fingerprint>
EAAAAAAAAgAAAgABgAABAAAAABAAAAAAAAAAAAAEAQABYAAEAAAAAIQACAAAECAAEwAAAAAAAABAAMAEAAAAAAAAAAAAQAAAAAAAAACAAAAAACAAQAAAABAAAAAAAAAABCAAAAAIAAAIAAAQAAAAAAAAAAAQAAAAAAAAAwgA

$$$$

 OpenBabel04131118512D

 10  9  0  0  0  0  0  0  0  0999 V2000
    4.6062   -2.6601    0.0000 O   0  0  0  0  0  0  0  0  0  0  0  0
    3.4546   -1.9979    0.0000 C   0  0  0  0  0  0  0  0  0  0  0  0
    3.4546   -0.6679    0.0000 N   0  0  0  0  0  0  0  0  0  0  0  0
    2.3031    0.0000    0.0000 C   0  0  0  0  0  0  0  0  0  0  0  0
    1.1515   -0.6679    0.0000 C   0  0  0  0  0  0  0  0  0  0  0  0
    1.1515   -1.9979    0.0000 C   0  0  0  0  0  0  0  0  0  0  0  0
    0.0000   -2.6601    0.0000 C   0  0  0  0  0  0  0  0  0  0  0  0
    4.6062    0.0000    0.0000 N   0  0  0  0  0  0  0  0  0  0  0  0
    5.7577   -0.6679    0.0000 O   0  0  0  0  0  0  0  0  0  0  0  0
    2.3031   -2.6601    0.0000 N   0  0  0  0  0  0  0  0  0  0  0  0
  1  2  2  0  0  0  0
  2  3  1  0  0  0  0
  2 10  1  0  0  0  0
  3  4  1  0  0  0  0
  3  8  1  0  0  0  0
  4  5  1  0  0  0  0
  5  6  1  0  0  0  0
  6  7  1  0  0  0  0
  8  9  2  0  0  0  0
M  END
>  <ActivityOutcome_CPDBAS_Rat>
active

>  <cdk:Formula>
[]

>  <TD50_Rat_mmol>
0.00356

>  <net.bioclipse.cdk.fingerprint>
AhAASAABgAABAAAAABAAAAAAAAAAAAAEBQAAYAAAAoAAAAAAAAABECAAQQACAAAAAAAAAMAAAAKAAAAAAAAAQAAAAAAAAACAAABAACAAQAAAAAAAAAAAAAAARCAAAAAIAAAAAAAQAAAgAAAAAEAAAAAAAAAAAwAA

$$$$

 OpenBabel04131118512D

  6  6  0  0  0  0  0  0  0  0999 V2000
    0.0000   -0.9402    0.0000 C   0  0  0  0  0  0  0  0  0  0  0  0
    1.3308   -0.9402    0.0000 C   0  0  0  0  0  0  0  0  0  0  0  0
    2.2710    0.0000    0.0000 C   0  0  0  0  0  0  0  0  0  0  0  0
    3.2111   -0.9402    0.0000 C   0  0  0  0  0  0  0  0  0  0  0  0
    4.5419   -0.9402    0.0000 O   0  0  0  0  0  0  0  0  0  0  0  0
    2.2710   -1.8804    0.0000 O   0  0  0  0  0  0  0  0  0  0  0  0
  1  2  1  0  0  0  0
  2  3  1  0  0  0  0
  2  6  1  0  0  0  0
  3  4  1  0  0  0  0
  4  5  2  0  0  0  0
  4  6  1  0  0  0  0
M  END
>  <ActivityOutcome_CPDBAS_Rat>
active

>  <cdk:Formula>
[]

>  <TD50_Rat_mmol>
0.16

>  <net.bioclipse.cdk.fingerprint>
AgAAAAAAAAAAAAAAAIAAAACAAAAAAAAAYACAAAAAAAAAAAAAUCACAAAAAAAAAAAAIkAAAAAAAAAAAAAAAAAAAAAAAAAAAAAAAAAAAAAAABAAAAAAAAAAQAAAAAAAAAAAAAAQAAEAAAAAAFAQAAAAAAAAAAAA

$$$$

 OpenBabel04131118512D

 13 13  0  0  0  0  0  0  0  0999 V2000
    0.0000    1.4013    0.0000 O   0  0  0  0  0  0  0  0  0  0  0  0
    1.2145    2.0978    0.0000 C   0  0  0  0  0  0  0  0  0  0  0  0
    1.2145    3.4991    0.0000 C   0  0  0  0  0  0  0  0  0  0  0  0
    2.4288    4.2039    0.0000 C   0  0  0  0  0  0  0  0  0  0  0  0
    3.6433    3.4991    0.0000 C   0  0  0  0  0  0  0  0  0  0  0  0
    3.6433    2.0978    0.0000 C   0  0  0  0  0  0  0  0  0  0  0  0
    2.4288    1.4013    0.0000 C   0  0  0  0  0  0  0  0  0  0  0  0
    4.8493    1.4013    0.0000 C   0  0  0  0  0  0  0  0  0  0  0  0
    6.0638    2.0978    0.0000 C   0  0  0  0  0  0  0  0  0  0  0  0
    7.2782    1.4013    0.0000 C   0  0  0  0  0  0  0  0  0  0  0  0
    7.2782    0.0000    0.0000 O   0  0  0  0  0  0  0  0  0  0  0  0
    8.4927    2.0978    0.0000 O   0  0  0  0  0  0  0  0  0  0  0  0
    0.0000    4.2039    0.0000 O   0  0  0  0  0  0  0  0  0  0  0  0
  1  2  1  0  0  0  0
  2  3  2  0  0  0  0
  2  7  1  0  0  0  0
  3  4  1  0  0  0  0
  3 13  1  0  0  0  0
  4  5  2  0  0  0  0
  5  6  1  0  0  0  0
  6  7  2  0  0  0  0
  6  8  1  0  0  0  0
  8  9  2  0  0  0  0
  9 10  1  0  0  0  0
 10 11  2  0  0  0  0
 10 12  1  0  0  0  0
M  END
>  <ActivityOutcome_CPDBAS_Rat>
active

>  <cdk:Formula>
[]

>  <TD50_Rat_mmol>
1.65

>  <net.bioclipse.cdk.fingerprint>
QAABEAAAgAAAAAIAAAAAEAAAAAAAIAAAAAQAAAoAACIAAmEARACAgAAAAAAAgBAgAAAgABAQAEAAAACAAAQAAASAAABACBIAAAAAABAAgAAQAAAAAAgAAIAQAAACgAAggEAgQCAgAEAAkAJAAAgAAAAAAIBwCAAAAAAAAAAAAA==

$$$$

 OpenBabel04131118512D

 18 19  0  0  0  0  0  0  0  0999 V2000
    2.3001   -1.6689    0.0000 C   0  0  0  0  0  0  0  0  0  0  0  0
    2.3001   -3.0006    0.0000 C   0  0  0  0  0  0  0  0  0  0  0  0
    3.5713   -3.4156    0.0000 C   0  0  0  0  0  0  0  0  0  0  0  0
    3.9777   -4.6781    0.0000 O   0  0  0  0  0  0  0  0  0  0  0  0
    4.3495   -2.3347    0.0000 N   0  0  0  0  0  0  0  0  0  0  0  0
    3.5713   -1.2625    0.0000 C   0  0  0  0  0  0  0  0  0  0  0  0
    3.9777    0.0000    0.0000 O   0  0  0  0  0  0  0  0  0  0  0  0
    5.6812   -2.3347    0.0000 S   0  0  0  0  0  0  0  0  0  0  0  0
    6.3470   -3.4935    0.0000 C   0  0  0  0  0  0  0  0  0  0  0  0
    7.4971   -2.8276    0.0000 C   0  0  0  0  0  0  0  0  0  0  0  0
    7.4971   -1.4960    0.0000 Cl  0  0  0  0  0  0  0  0  0  0  0  0
    8.6472   -3.4935    0.0000 Cl  0  0  0  0  0  0  0  0  0  0  0  0
    7.0128   -4.6435    0.0000 Cl  0  0  0  0  0  0  0  0  0  0  0  0
    5.1883   -4.1506    0.0000 Cl  0  0  0  0  0  0  0  0  0  0  0  0
    1.1501   -3.6664    0.0000 C   0  0  0  0  0  0  0  0  0  0  0  0
    0.0000   -3.0006    0.0000 C   0  0  0  0  0  0  0  0  0  0  0  0
    0.0000   -1.6689    0.0000 C   0  0  0  0  0  0  0  0  0  0  0  0
    1.1501   -1.0117    0.0000 C   0  0  0  0  0  0  0  0  0  0  0  0
  1  2  1  0  0  0  0
  1  6  1  0  0  0  0
  1 18  1  0  0  0  0
  2  3  1  0  0  0  0
  2 15  1  0  0  0  0
  3  4  2  0  0  0  0
  3  5  1  0  0  0  0
  5  6  1  0  0  0  0
  5  8  1  0  0  0  0
  6  7  2  0  0  0  0
  8  9  1  0  0  0  0
  9 10  1  0  0  0  0
  9 13  1  0  0  0  0
  9 14  1  0  0  0  0
 10 11  1  0  0  0  0
 10 12  1  0  0  0  0
 15 16  1  0  0  0  0
 16 17  2  0  0  0  0
 17 18  1  0  0  0  0
M  END
>  <ActivityOutcome_CPDBAS_Rat>
active

>  <cdk:Formula>
[]

>  <TD50_Rat_mmol>
0.21

>  <net.bioclipse.cdk.fingerprint>
RBIEABAAhAYAAAAAAQAAAEEQBoAUQgFAAAAAAAACAKUBAeBABAIAAsgAAAgBEQAgABBQBgBQAAAMQCHAgAEB0FAABAQgBEAJAACAgAAAgAAAQBKqQUAIAEIAAAAMkQAIAEAQAAEQgAAAACCAEAAhBCCACADwCAABAEBBAEIIIA==

$$$$

 OpenBabel04131118512D

 16 17  0  0  0  0  0  0  0  0999 V2000
    4.9479   -4.0566    0.0000 O   0  0  0  0  0  0  0  0  0  0  0  0
    3.9584   -3.1652    0.0000 C   0  0  0  0  0  0  0  0  0  0  0  0
    4.1019   -1.8432    0.0000 N   0  0  0  0  0  0  0  0  0  0  0  0
    2.8857   -1.2993    0.0000 C   0  0  0  0  0  0  0  0  0  0  0  0
    2.6062    0.0000    0.0000 O   0  0  0  0  0  0  0  0  0  0  0  0
    1.9943   -2.2889    0.0000 C   0  0  0  0  0  0  0  0  0  0  0  0
    2.6590   -3.4447    0.0000 C   0  0  0  0  0  0  0  0  0  0  0  0
    1.9943   -4.5929    0.0000 C   0  0  0  0  0  0  0  0  0  0  0  0
    0.6648   -4.5929    0.0000 C   0  0  0  0  0  0  0  0  0  0  0  0
    0.0000   -3.4447    0.0000 C   0  0  0  0  0  0  0  0  0  0  0  0
    0.6648   -2.2889    0.0000 C   0  0  0  0  0  0  0  0  0  0  0  0
    5.2501   -1.1784    0.0000 S   0  0  0  0  0  0  0  0  0  0  0  0
    6.4059   -1.8432    0.0000 C   0  0  0  0  0  0  0  0  0  0  0  0
    7.0707   -0.6874    0.0000 Cl  0  0  0  0  0  0  0  0  0  0  0  0
    7.5541   -2.5080    0.0000 Cl  0  0  0  0  0  0  0  0  0  0  0  0
    5.7411   -2.9914    0.0000 Cl  0  0  0  0  0  0  0  0  0  0  0  0
  1  2  2  0  0  0  0
  2  3  1  0  0  0  0
  2  7  1  0  0  0  0
  3  4  1  0  0  0  0
  3 12  1  0  0  0  0
  4  5  2  0  0  0  0
  4  6  1  0  0  0  0
  6  7  1  0  0  0  0
  6 11  1  0  0  0  0
  7  8  1  0  0  0  0
  8  9  1  0  0  0  0
  9 10  2  0  0  0  0
 10 11  1  0  0  0  0
 12 13  1  0  0  0  0
 13 14  1  0  0  0  0
 13 15  1  0  0  0  0
 13 16  1  0  0  0  0
M  END
>  <ActivityOutcome_CPDBAS_Rat>
active

>  <cdk:Formula>
[]

>  <TD50_Rat_mmol>
6.92

>  <net.bioclipse.cdk.fingerprint>
RBIEABAAgAYAAAAAAQAAAEEQBoAEQgBAAAAAAAACAKUBAeBABAIAAsgAAAgBEQAgABBQBgBQAAAIQCHAAAEB0FAAAAQgBEAJAACAgAAAgAAAQBKqAUAAAEIAAAAIEQAIAEAAAAEAAAAAACCAEAAhBACACADwCAAAAEBAAAIIIA==

$$$$

 OpenBabel04131118512D

 15 16  0  0  0  0  0  0  0  0999 V2000
    1.1543   -0.6704    0.0000 O   0  0  0  0  0  0  0  0  0  0  0  0
    1.1543   -1.9975    0.0000 C   0  0  0  0  0  0  0  0  0  0  0  0
    2.3016   -2.6610    0.0000 O   0  0  0  0  0  0  0  0  0  0  0  0
    3.4559   -1.9975    0.0000 C   0  0  0  0  0  0  0  0  0  0  0  0
    4.6102   -2.6610    0.0000 C   0  0  0  0  0  0  0  0  0  0  0  0
    5.7575   -1.9975    0.0000 C   0  0  0  0  0  0  0  0  0  0  0  0
    5.7575   -0.6704    0.0000 C   0  0  0  0  0  0  0  0  0  0  0  0
    4.6102    0.0000    0.0000 C   0  0  0  0  0  0  0  0  0  0  0  0
    3.4559   -0.6704    0.0000 C   0  0  0  0  0  0  0  0  0  0  0  0
    6.9118   -2.6610    0.0000 C   0  0  0  0  0  0  0  0  0  0  0  0
    6.9118   -3.9950    0.0000 C   0  0  0  0  0  0  0  0  0  0  0  0
    5.7575   -4.6585    0.0000 C   0  0  0  0  0  0  0  0  0  0  0  0
    4.6102   -3.9950    0.0000 C   0  0  0  0  0  0  0  0  0  0  0  0
    0.0000   -2.6610    0.0000 N   0  0  0  0  0  0  0  0  0  0  0  0
    0.0000   -3.9950    0.0000 C   0  0  0  0  0  0  0  0  0  0  0  0
  1  2  2  0  0  0  0
  2  3  1  0  0  0  0
  2 14  1  0  0  0  0
  3  4  1  0  0  0  0
  4  5  2  0  0  0  0
  4  9  1  0  0  0  0
  5  6  1  0  0  0  0
  5 13  1  0  0  0  0
  6  7  2  0  0  0  0
  6 10  1  0  0  0  0
  7  8  1  0  0  0  0
  8  9  2  0  0  0  0
 10 11  2  0  0  0  0
 11 12  1  0  0  0  0
 12 13  2  0  0  0  0
 14 15  1  0  0  0  0
M  END
>  <ActivityOutcome_CPDBAS_Rat>
active

>  <cdk:Formula>
[]

>  <TD50_Rat_mmol>
0.0701

>  <net.bioclipse.cdk.fingerprint>
AKAAAAAAAAAAAAAAAgAAAAAAAAAAAAAAAIAAEACAAAAAAAACaRAABBAAAAAAAAAAAAAAACAAAAAAQAAAAMCAAACAAhIwAACAAACAAAQAAACAAAAAAAAAEAhAAAEAAgAAACAARAAAICggAABAAgEAAAAAAAAAgEAAAEAAAAAAIgAA

$$$$

 OpenBabel04131118512D

  5  4  0  0  0  0  0  0  0  0999 V2000
    1.3300   -2.6600    0.0000 Cl  0  0  0  0  0  0  0  0  0  0  0  0
    1.3300   -1.3300    0.0000 C   0  0  0  0  0  0  0  0  0  0  0  0
    0.0000   -1.3300    0.0000 Cl  0  0  0  0  0  0  0  0  0  0  0  0
    1.3300    0.0000    0.0000 Cl  0  0  0  0  0  0  0  0  0  0  0  0
    2.6600   -1.3300    0.0000 Cl  0  0  0  0  0  0  0  0  0  0  0  0
  1  2  1  0  0  0  0
  2  3  1  0  0  0  0
  2  4  1  0  0  0  0
  2  5  1  0  0  0  0
M  END
>  <ActivityOutcome_CPDBAS_Rat>
active

>  <cdk:Formula>
[]

>  <TD50_Rat_mmol>
0.181

>  <net.bioclipse.cdk.fingerprint>
AMAAAAAAAAAAAAAAAAAAAAAABAAAAAAAAAAAAAABAAAAAAAAAAAAAAAAAAAAAAAAAAAAAAAAAAAAAAAAAAAAAAAAAAAAAAAAAAAAAAAAAAAAAAAAAAAAAAAAAAAAAA==

$$$$

 OpenBabel04131118512D

 10  9  0  0  0  0  0  0  0  0999 V2000
    2.3042   -1.9989    0.0000 N   0  0  0  0  0  0  0  0  0  0  0  0
    2.3042   -0.6682    0.0000 C   0  0  0  0  0  0  0  0  0  0  0  0
    3.4563    0.0000    0.0000 O   0  0  0  0  0  0  0  0  0  0  0  0
    1.1521    0.0000    0.0000 N   0  0  0  0  0  0  0  0  0  0  0  0
    1.1521   -2.6614    0.0000 N   0  0  0  0  0  0  0  0  0  0  0  0
    0.0000   -1.9989    0.0000 O   0  0  0  0  0  0  0  0  0  0  0  0
    3.4563   -2.6614    0.0000 C   0  0  0  0  0  0  0  0  0  0  0  0
    4.6084   -1.9989    0.0000 C   0  0  0  0  0  0  0  0  0  0  0  0
    4.6084   -0.6682    0.0000 O   0  0  0  0  0  0  0  0  0  0  0  0
    5.7605   -2.6614    0.0000 O   0  0  0  0  0  0  0  0  0  0  0  0
  1  2  1  0  0  0  0
  1  5  1  0  0  0  0
  1  7  1  0  0  0  0
  2  3  2  0  0  0  0
  2  4  1  0  0  0  0
  5  6  2  0  0  0  0
  7  8  1  0  0  0  0
  8  9  2  0  0  0  0
  8 10  1  0  0  0  0
M  END
>  <ActivityOutcome_CPDBAS_Rat>
active

>  <cdk:Formula>
[]

>  <TD50_Rat_mmol>
0.0293

>  <net.bioclipse.cdk.fingerprint>
AhAASoAAgAAAABAAAAgAAAAAAQAAAAAEBQAAYAAAAoAAAAAAAAABCCAAAQAAIAAAAAAEAIAAAAKAAAAAAAAAAAAAAAAAAACAAAAAYAAAAAAAABAAAAAAAAAARCAAAAAAAAAAAAAAAACAAAAAAFAEAAAAAAAAAwAA

$$$$

 OpenBabel04131118512D

  8  8  0  0  0  0  0  0  0  0999 V2000
    0.0000   -2.3027    0.0000 O   0  0  0  0  0  0  0  0  0  0  0  0
    1.3289   -2.3027    0.0000 C   0  0  0  0  0  0  0  0  0  0  0  0
    1.9954   -1.1533    0.0000 C   0  0  0  0  0  0  0  0  0  0  0  0
    3.3243   -1.1533    0.0000 C   0  0  0  0  0  0  0  0  0  0  0  0
    3.9907   -2.3027    0.0000 C   0  0  0  0  0  0  0  0  0  0  0  0
    3.3243   -3.4560    0.0000 C   0  0  0  0  0  0  0  0  0  0  0  0
    1.9954   -3.4560    0.0000 C   0  0  0  0  0  0  0  0  0  0  0  0
    1.3289    0.0000    0.0000 O   0  0  0  0  0  0  0  0  0  0  0  0
  1  2  1  0  0  0  0
  2  3  2  0  0  0  0
  2  7  1  0  0  0  0
  3  4  1  0  0  0  0
  3  8  1  0  0  0  0
  4  5  2  0  0  0  0
  5  6  1  0  0  0  0
  6  7  2  0  0  0  0
M  END
>  <ActivityOutcome_CPDBAS_Rat>
active

>  <cdk:Formula>
[]

>  <TD50_Rat_mmol>
0.649

>  <net.bioclipse.cdk.fingerprint>
AgAAAAAAAAAAAAAAAAAAAAAAAAAAAAACYQAAAAAAAAAAAAAAAAAAACAAAAAAQAAAAAAAAAAABAAAAAAAAgAAAAAAAACAAAAAAAAAAAAAAAAAAAAAACAAAAAAICAAAAAAAgAAAAAAAAAAgAAAAAAAAAAAAAAA

$$$$

 OpenBabel04131118512D

 19 19  0  0  0  0  0  0  0  0999 V2000
    9.9785   -2.3050    0.0000 Cl  0  0  0  0  0  0  0  0  0  0  0  0
    9.3099   -3.4526    0.0000 C   0  0  0  0  0  0  0  0  0  0  0  0
    7.9828   -3.4526    0.0000 C   0  0  0  0  0  0  0  0  0  0  0  0
    7.3142   -4.6101    0.0000 N   0  0  0  0  0  0  0  0  0  0  0  0
    5.9871   -4.6101    0.0000 C   0  0  0  0  0  0  0  0  0  0  0  0
    5.3185   -5.7576    0.0000 C   0  0  0  0  0  0  0  0  0  0  0  0
    3.9914   -5.7576    0.0000 C   0  0  0  0  0  0  0  0  0  0  0  0
    3.3228   -4.6101    0.0000 C   0  0  0  0  0  0  0  0  0  0  0  0
    3.9914   -3.4526    0.0000 C   0  0  0  0  0  0  0  0  0  0  0  0
    5.3185   -3.4526    0.0000 C   0  0  0  0  0  0  0  0  0  0  0  0
    1.9957   -4.6101    0.0000 C   0  0  0  0  0  0  0  0  0  0  0  0
    1.3271   -3.4526    0.0000 C   0  0  0  0  0  0  0  0  0  0  0  0
    1.9957   -2.3050    0.0000 C   0  0  0  0  0  0  0  0  0  0  0  0
    1.3271   -1.1475    0.0000 C   0  0  0  0  0  0  0  0  0  0  0  0
    0.0000   -1.1475    0.0000 O   0  0  0  0  0  0  0  0  0  0  0  0
    1.9957    0.0000    0.0000 O   0  0  0  0  0  0  0  0  0  0  0  0
    7.9828   -5.7576    0.0000 C   0  0  0  0  0  0  0  0  0  0  0  0
    9.3099   -5.7576    0.0000 C   0  0  0  0  0  0  0  0  0  0  0  0
    9.9785   -4.6101    0.0000 Cl  0  0  0  0  0  0  0  0  0  0  0  0
  1  2  1  0  0  0  0
  2  3  1  0  0  0  0
  3  4  1  0  0  0  0
  4  5  1  0  0  0  0
  4 17  1  0  0  0  0
  5  6  2  0  0  0  0
  5 10  1  0  0  0  0
  6  7  1  0  0  0  0
  7  8  2  0  0  0  0
  8  9  1  0  0  0  0
  8 11  1  0  0  0  0
  9 10  2  0  0  0  0
 11 12  1  0  0  0  0
 12 13  1  0  0  0  0
 13 14  1  0  0  0  0
 14 15  2  0  0  0  0
 14 16  1  0  0  0  0
 17 18  1  0  0  0  0
 18 19  1  0  0  0  0
M  END
>  <ActivityOutcome_CPDBAS_Rat>
active

>  <cdk:Formula>
[]

>  <TD50_Rat_mmol>
0.00295

>  <net.bioclipse.cdk.fingerprint>
EAAAAAEAIgAAEgAAQAAACAIAAAAARUEAAAAABEACCQEA4AAAAAAABAAAAAAAkKAAJEACAAIAQgAAIMAEAAFABQgIAEAQAhQAAABCgBCQAAAEAQEAAAAAgBAAAACAACAAQABAIAAAACAAAkAQBAEQABwAhFQQBACAAAAAAjAA

$$$$

 OpenBabel04131118512D

 19 20  0  0  0  0  0  0  0  0999 V2000
    5.3611    3.4834    0.0000 C   0  0  0  0  0  0  0  0  0  0  0  0
    5.3611    2.0834    0.0000 C   0  0  0  0  0  0  0  0  0  0  0  0
    3.8882    4.3327    0.0000 C   0  0  1  0  0  0  0  0  0  0  0  0
    3.8882    2.7137    0.0000 C   0  0  2  0  0  0  0  0  0  0  0  0
    2.4152    3.4834    0.0000 C   0  0  1  0  0  0  0  0  0  0  0  0
    2.4152    2.0900    0.0000 C   0  0  2  0  0  0  0  0  0  0  0  0
    3.3773    5.7659    0.0000 C   0  0  0  0  0  0  0  0  0  0  0  0
    1.2076    1.3934    0.0000 C   0  0  0  0  0  0  0  0  0  0  0  0
    1.2076    4.1801    0.0000 C   0  0  0  0  0  0  0  0  0  0  0  0
    1.2076    0.0000    0.0000 O   0  0  0  0  0  0  0  0  0  0  0  0
    0.0000    2.0900    0.0000 O   0  0  0  0  0  0  0  0  0  0  0  0
    1.2076    5.5735    0.0000 O   0  0  0  0  0  0  0  0  0  0  0  0
    0.0000    3.4834    0.0000 O   0  0  0  0  0  0  0  0  0  0  0  0
    6.5754    1.3801    0.0000 Cl  0  0  0  0  0  0  0  0  0  0  0  0
    6.5754    4.1867    0.0000 Cl  0  0  0  0  0  0  0  0  0  0  0  0
    4.4256    6.6351    0.0000 Cl  0  0  0  0  0  0  0  0  0  0  0  0
    2.0967    6.2436    0.0000 Cl  0  0  0  0  0  0  0  0  0  0  0  0
    3.4967    1.2806    0.0000 Cl  0  0  0  0  0  0  0  0  0  0  0  0
    4.6665    5.2689    0.0000 Cl  0  0  0  0  0  0  0  0  0  0  0  0
  2  1  2  0  0  0  0
  3  1  1  0  0  0  0
  3 19  1  6  0  0  0
  4  2  1  0  0  0  0
  4  7  1  0  0  0  0
  4 18  1  1  0  0  0
  5  3  1  0  0  0  0
  5  9  1  1  0  0  0
  6  4  1  0  0  0  0
  6  5  1  0  0  0  0
  6  8  1  1  0  0  0
  7  3  1  0  0  0  0
 10  8  2  0  0  0  0
 11  8  1  0  0  0  0
 12  9  2  0  0  0  0
 13  9  1  0  0  0  0
 14  2  1  0  0  0  0
 15  1  1  0  0  0  0
 16  7  1  0  0  0  0
 17  7  1  0  0  0  0
M  END
>  <ActivityOutcome_CPDBAS_Rat>
active

>  <cdk:Formula>
[]

>  <TD50_Rat_mmol>
0.105

>  <net.bioclipse.cdk.fingerprint>
QAAAAAEAAAQgAAIRAAAAEABIAsAMQABAEYAAAIgAAIUBCPAAAAIAgEAAAAATQBCoMKIADk1QIIAaSyBAQAABAAADpAQggABqABBAQAARgRAAAADAAQAAAAAQYAAAAAQAQkAAAOBAACAABAAAEAQBAAAwAADYGAAAAABABAAAIA==

$$$$

 OpenBabel04131118512D

 15 16  0  0  0  0  0  0  0  0999 V2000
    9.2080   -2.6611    0.0000 N   0  0  0  0  0  0  0  0  0  0  0  0
    8.0570   -1.9981    0.0000 C   0  0  0  0  0  0  0  0  0  0  0  0
    6.9060   -2.6611    0.0000 C   0  0  0  0  0  0  0  0  0  0  0  0
    5.7550   -1.9981    0.0000 C   0  0  0  0  0  0  0  0  0  0  0  0
    5.7550   -0.6630    0.0000 C   0  0  0  0  0  0  0  0  0  0  0  0
    6.9060    0.0000    0.0000 C   0  0  0  0  0  0  0  0  0  0  0  0
    8.0570   -0.6630    0.0000 C   0  0  0  0  0  0  0  0  0  0  0  0
    4.6040    0.0000    0.0000 O   0  0  0  0  0  0  0  0  0  0  0  0
    3.4530   -0.6630    0.0000 C   0  0  0  0  0  0  0  0  0  0  0  0
    3.4530   -1.9981    0.0000 C   0  0  0  0  0  0  0  0  0  0  0  0
    2.3020   -2.6611    0.0000 C   0  0  0  0  0  0  0  0  0  0  0  0
    1.1510   -1.9981    0.0000 C   0  0  0  0  0  0  0  0  0  0  0  0
    1.1510   -0.6630    0.0000 C   0  0  0  0  0  0  0  0  0  0  0  0
    2.3020    0.0000    0.0000 C   0  0  0  0  0  0  0  0  0  0  0  0
    0.0000   -2.6611    0.0000 Cl  0  0  0  0  0  0  0  0  0  0  0  0
  1  2  1  0  0  0  0
  2  3  2  0  0  0  0
  2  7  1  0  0  0  0
  3  4  1  0  0  0  0
  4  5  2  0  0  0  0
  5  6  1  0  0  0  0
  5  8  1  0  0  0  0
  6  7  2  0  0  0  0
  8  9  1  0  0  0  0
  9 10  2  0  0  0  0
  9 14  1  0  0  0  0
 10 11  1  0  0  0  0
 11 12  2  0  0  0  0
 12 13  1  0  0  0  0
 12 15  1  0  0  0  0
 13 14  2  0  0  0  0
M  END
>  <ActivityOutcome_CPDBAS_Rat>
active

>  <cdk:Formula>
[]

>  <TD50_Rat_mmol>
0.171

>  <net.bioclipse.cdk.fingerprint>
IACAAgAAAAAAAAAAAoAAQIAAAAAABAACAAAC4UAAAAQQAAAAAAAAACgAACAAAAAAYAAAAAAAAAEAApQAAAAAAAAAAAQAAACAAAEAAAAAAAABAQIAAAAAACAAAAGAICQgAAACEgAAAAAAAAAAgAAAAAAAAAAAIhAA

$$$$

 OpenBabel04131118512D

 11 11  0  0  0  0  0  0  0  0999 V2000
    4.3388   -2.3406    0.0000 O   0  0  0  0  0  0  0  0  0  0  0  0
    3.5569   -3.4189    0.0000 C   0  0  0  0  0  0  0  0  0  0  0  0
    3.5569   -1.2674    0.0000 C   0  0  0  0  0  0  0  0  0  0  0  0
    2.2895   -3.0050    0.0000 C   0  0  0  0  0  0  0  0  0  0  0  0
    2.2895   -1.6762    0.0000 C   0  0  0  0  0  0  0  0  0  0  0  0
    3.9657    0.0000    0.0000 O   0  0  0  0  0  0  0  0  0  0  0  0
    1.2163   -0.8943    0.0000 Cl  0  0  0  0  0  0  0  0  0  0  0  0
    1.2163   -3.7869    0.0000 C   0  0  0  0  0  0  0  0  0  0  0  0
    0.0000   -3.2452    0.0000 Cl  0  0  0  0  0  0  0  0  0  0  0  0
    1.3543   -5.1105    0.0000 Cl  0  0  0  0  0  0  0  0  0  0  0  0
    3.9657   -4.6812    0.0000 O   0  0  0  0  0  0  0  0  0  0  0  0
  1  2  1  0  0  0  0
  1  3  1  0  0  0  0
  2  4  1  0  0  0  0
  2 11  1  0  0  0  0
  3  5  1  0  0  0  0
  3  6  2  0  0  0  0
  4  5  2  0  0  0  0
  4  8  1  0  0  0  0
  5  7  1  0  0  0  0
  8  9  1  0  0  0  0
  8 10  1  0  0  0  0
M  END
>  <ActivityOutcome_CPDBAS_Rat>
active

>  <cdk:Formula>
[]

>  <TD50_Rat_mmol>
0.00268

>  <net.bioclipse.cdk.fingerprint>
AMCAAQAAAABAAAADAAQAABAAAAAAAAAAgAIAAIKAgAAAAADwCIAAAAAABAAAAABwIAIAAA4QEAAACEAAQAAAAQAAAAgAQIAAIAAAAAAAAQAAAAAAYAAAQBQAMQAAAAAAAABIQIgAAAAAAAAAAAAAAAEAKIAAcAgAAAAAAAAAACA=

$$$$

 OpenBabel04131118512D

 21 22  0  0  0  0  0  0  0  0999 V2000
    1.1685   -1.8218    0.0000 C   0  0  2  0  0  0  0  0  0  0  0  0
    1.1685   -3.1559    0.0000 C   0  0  0  0  0  0  0  0  0  0  0  0
    2.3094   -3.8276    0.0000 C   0  0  1  0  0  0  0  0  0  0  0  0
    3.4595   -3.1559    0.0000 C   0  0  0  0  0  0  0  0  0  0  0  0
    3.4595   -1.8218    0.0000 N   0  0  0  0  0  0  0  0  0  0  0  0
    2.3094   -1.1501    0.0000 C   0  0  0  0  0  0  0  0  0  0  0  0
    0.0000   -1.1685    0.0000 C   0  0  0  0  0  0  0  0  0  0  0  0
    2.2910   -5.1617    0.0000 C   0  0  0  0  0  0  0  0  0  0  0  0
    4.6004   -1.1501    0.0000 S   0  0  0  0  0  0  0  0  0  0  0  0
    5.7505   -1.8218    0.0000 C   0  0  0  0  0  0  0  0  0  0  0  0
    3.9288    0.0000    0.0000 O   0  0  0  0  0  0  0  0  0  0  0  0
    5.2721    0.0000    0.0000 O   0  0  0  0  0  0  0  0  0  0  0  0
    5.7505   -3.1559    0.0000 C   0  0  0  0  0  0  0  0  0  0  0  0
    6.8914   -3.8092    0.0000 C   0  0  0  0  0  0  0  0  0  0  0  0
    8.0507   -3.1559    0.0000 C   0  0  0  0  0  0  0  0  0  0  0  0
    8.0507   -1.8218    0.0000 C   0  0  0  0  0  0  0  0  0  0  0  0
    6.9098   -1.1685    0.0000 C   0  0  0  0  0  0  0  0  0  0  0  0
    6.8914   -5.1433    0.0000 C   0  0  0  0  0  0  0  0  0  0  0  0
    5.7229   -5.7965    0.0000 O   0  0  0  0  0  0  0  0  0  0  0  0
    8.0323   -5.8149    0.0000 O   0  0  0  0  0  0  0  0  0  0  0  0
    9.2008   -3.8276    0.0000 Cl  0  0  0  0  0  0  0  0  0  0  0  0
  1  7  1  1  0  0  0
  1  2  1  0  0  0  0
  1  6  1  0  0  0  0
  2  3  1  0  0  0  0
  3  4  1  0  0  0  0
  3  8  1  1  0  0  0
  4  5  1  0  0  0  0
  5  6  1  0  0  0  0
  5  9  1  0  0  0  0
  9 11  2  0  0  0  0
  9 12  2  0  0  0  0
  9 10  1  0  0  0  0
 10 13  2  0  0  0  0
 10 17  1  0  0  0  0
 13 14  1  0  0  0  0
 14 15  2  0  0  0  0
 14 18  1  0  0  0  0
 15 16  1  0  0  0  0
 15 21  1  0  0  0  0
 16 17  2  0  0  0  0
 18 19  2  0  0  0  0
 18 20  1  0  0  0  0
M  END
>  <ActivityOutcome_CPDBAS_Rat>
active

>  <cdk:Formula>
[]

>  <TD50_Rat_mmol>
0.0146

>  <net.bioclipse.cdk.fingerprint>
BASQACBAACACAIASgAEQAAQBAAQAABIAFAAAUAAgAQAAAQnoQAQADgIAAIAABQCCIABQACCQACBAKAAI4FCBIQAEAIAAAB1AAEAACCQEAIAAACADoABAAAGBFAQAAJABIABBAMAhBAIMABAyQBAAKAiAAAGB8ChgAQEEQACGAAA=

$$$$

 OpenBabel04131118512D

  5  4  0  0  0  0  0  0  0  0999 V2000
    3.4567   -1.9945    0.0000 C   0  0  0  0  0  0  0  0  0  0  0  0
    2.3056   -1.3308    0.0000 C   0  0  0  0  0  0  0  0  0  0  0  0
    2.3056    0.0000    0.0000 C   0  0  0  0  0  0  0  0  0  0  0  0
    1.1511   -1.9945    0.0000 C   0  0  0  0  0  0  0  0  0  0  0  0
    0.0000   -1.3308    0.0000 Cl  0  0  0  0  0  0  0  0  0  0  0  0
  1  2  1  0  0  0  0
  2  3  2  0  0  0  0
  2  4  1  0  0  0  0
  4  5  1  0  0  0  0
M  END
>  <ActivityOutcome_CPDBAS_Rat>
active

>  <cdk:Formula>
[]

>  <TD50_Rat_mmol>
1.25

>  <net.bioclipse.cdk.fingerprint>
QAAAAAAAAAAAAAAAAAAAAAAAAAAAAAAAAAAAAIAAAAAAAMAAAAAAAAAAAAAAAAAgAAAAAgAQAAAAAABAAAABAAAAAAAAgAAAAAAAAAAAAAAAAAAAAAAAAAAAAAAAAAAAAAAAAAAAAAAAAAAAAAAAAAAAAAAAAAAAAAAAAAAAAA==

$$$$

 OpenBabel04131118512D

  9  9  0  0  0  0  0  0  0  0999 V2000
    0.0000   -2.6589    0.0000 N   0  0  0  0  0  0  0  0  0  0  0  0
    1.1520   -1.9953    0.0000 C   0  0  0  0  0  0  0  0  0  0  0  0
    1.1520   -0.6636    0.0000 C   0  0  0  0  0  0  0  0  0  0  0  0
    2.3041    0.0000    0.0000 C   0  0  0  0  0  0  0  0  0  0  0  0
    3.4561   -0.6636    0.0000 C   0  0  0  0  0  0  0  0  0  0  0  0
    3.4561   -1.9953    0.0000 C   0  0  0  0  0  0  0  0  0  0  0  0
    2.3041   -2.6589    0.0000 C   0  0  0  0  0  0  0  0  0  0  0  0
    4.6082   -2.6589    0.0000 N   0  0  0  0  0  0  0  0  0  0  0  0
    0.0000    0.0000    0.0000 Cl  0  0  0  0  0  0  0  0  0  0  0  0
  1  2  1  0  0  0  0
  2  3  2  0  0  0  0
  2  7  1  0  0  0  0
  3  4  1  0  0  0  0
  3  9  1  0  0  0  0
  4  5  2  0  0  0  0
  5  6  1  0  0  0  0
  6  7  2  0  0  0  0
  6  8  1  0  0  0  0
M  END
>  <ActivityOutcome_CPDBAS_Rat>
active

>  <cdk:Formula>
[]

>  <TD50_Rat_mmol>
2.21

>  <net.bioclipse.cdk.fingerprint>
IAAAQAAAAAQAAAAAAAAAQAAAAAAABAACAAAA4AAAAAAAAAAAAAAAACAAAAAAAAAAQAAABAAAAAEAAAAAAAAAAAAAAAAAAAAAAAAAAAAAAAABAQAAAAAAACAAAACAIAQAAAAAEgAAAAAAAAAAgAAAEAAAAAAAAhAA

$$$$

 OpenBabel04131118512D

  9  9  0  0  0  0  0  0  0  0999 V2000
    0.0000   -2.6589    0.0000 N   0  0  0  0  0  0  0  0  0  0  0  0
    1.1520   -1.9953    0.0000 C   0  0  0  0  0  0  0  0  0  0  0  0
    1.1520   -0.6636    0.0000 C   0  0  0  0  0  0  0  0  0  0  0  0
    2.3041    0.0000    0.0000 C   0  0  0  0  0  0  0  0  0  0  0  0
    3.4561   -0.6636    0.0000 C   0  0  0  0  0  0  0  0  0  0  0  0
    3.4561   -1.9953    0.0000 C   0  0  0  0  0  0  0  0  0  0  0  0
    2.3041   -2.6589    0.0000 C   0  0  0  0  0  0  0  0  0  0  0  0
    4.6082   -2.6589    0.0000 Cl  0  0  0  0  0  0  0  0  0  0  0  0
    0.0000    0.0000    0.0000 N   0  0  0  0  0  0  0  0  0  0  0  0
  1  2  1  0  0  0  0
  2  3  2  0  0  0  0
  2  7  1  0  0  0  0
  3  4  1  0  0  0  0
  3  9  1  0  0  0  0
  4  5  2  0  0  0  0
  5  6  1  0  0  0  0
  6  7  2  0  0  0  0
  6  8  1  0  0  0  0
M  END
>  <ActivityOutcome_CPDBAS_Rat>
active

>  <cdk:Formula>
[]

>  <TD50_Rat_mmol>
1.5

>  <net.bioclipse.cdk.fingerprint>
CAAAAAAAACgAAAAAAAAAAAAAAAAAAEAAAAAAAAQAAgAAAOAAAAAAAAAAAAAAAAAgAAAAAAAAAEAAAAAAAAABAAAAAAAAAAAAAAAAAAAAAAAIAAAAAAAAAQEAAAAAAAAgAAAAgCAEAAAAABIAAAAAAAAAAIAAAAAAAAAAAAIQAA==

$$$$

 OpenBabel04131118512D

  6  5  0  0  0  0  0  0  0  0999 V2000
    1.1503   -1.1537    0.0000 C   0  0  0  0  0  0  0  0  0  0  0  0
    2.3040   -0.4870    0.0000 C   0  0  0  0  0  0  0  0  0  0  0  0
    3.4542   -1.1537    0.0000 Cl  0  0  0  0  0  0  0  0  0  0  0  0
    1.8169   -2.3040    0.0000 F   0  0  0  0  0  0  0  0  0  0  0  0
    0.0000   -1.8169    0.0000 F   0  0  0  0  0  0  0  0  0  0  0  0
    0.4870    0.0000    0.0000 F   0  0  0  0  0  0  0  0  0  0  0  0
  1  2  1  0  0  0  0
  1  4  1  0  0  0  0
  1  5  1  0  0  0  0
  1  6  1  0  0  0  0
  2  3  1  0  0  0  0
M  END
>  <ActivityOutcome_CPDBAS_Rat>
active

>  <cdk:Formula>
[]

>  <TD50_Rat_mmol>
0.737

>  <net.bioclipse.cdk.fingerprint>
MAAAwAAAAAAgAAAAAAAAACAAAAACAAAAAAAAAAAAAAEAAAAAAACAAAAAAAAAAAAAAAAAAAAAAAAAAAAAAAAAAAAAAAAAAAAAAAAAAAAAAAAAAAAAAAAAAAAAAAAAAAAA

$$$$

 OpenBabel04131118512D

 21 22  0  0  0  0  0  0  0  0999 V2000
    5.7698    0.0000    0.0000 Cl  0  0  0  0  0  0  0  0  0  0  0  0
    5.7698   -1.3315    0.0000 C   0  0  0  0  0  0  0  0  0  0  0  0
    6.9111   -2.0036    0.0000 C   0  0  0  0  0  0  0  0  0  0  0  0
    6.9111   -3.3351    0.0000 C   0  0  0  0  0  0  0  0  0  0  0  0
    5.7698   -3.9945    0.0000 N   0  0  0  0  0  0  0  0  0  0  0  0
    4.6158   -3.3351    0.0000 C   0  0  0  0  0  0  0  0  0  0  0  0
    4.6158   -2.0036    0.0000 N   0  0  0  0  0  0  0  0  0  0  0  0
    3.4619   -3.9945    0.0000 S   0  0  0  0  0  0  0  0  0  0  0  0
    2.3079   -3.3351    0.0000 C   0  0  0  0  0  0  0  0  0  0  0  0
    1.1540   -3.9945    0.0000 C   0  0  0  0  0  0  0  0  0  0  0  0
    1.1540   -5.3260    0.0000 O   0  0  0  0  0  0  0  0  0  0  0  0
    0.0000   -3.3351    0.0000 O   0  0  0  0  0  0  0  0  0  0  0  0
    8.0650   -3.9945    0.0000 N   0  0  0  0  0  0  0  0  0  0  0  0
    9.2190   -3.3351    0.0000 C   0  0  0  0  0  0  0  0  0  0  0  0
    9.2190   -2.0036    0.0000 C   0  0  0  0  0  0  0  0  0  0  0  0
   10.3730   -1.3315    0.0000 C   0  0  0  0  0  0  0  0  0  0  0  0
   11.5269   -2.0036    0.0000 C   0  0  0  0  0  0  0  0  0  0  0  0
   11.5269   -3.3351    0.0000 C   0  0  0  0  0  0  0  0  0  0  0  0
   10.3730   -3.9945    0.0000 C   0  0  0  0  0  0  0  0  0  0  0  0
   10.3730   -5.3260    0.0000 C   0  0  0  0  0  0  0  0  0  0  0  0
   12.6809   -3.9945    0.0000 C   0  0  0  0  0  0  0  0  0  0  0  0
  1  2  1  0  0  0  0
  2  3  2  0  0  0  0
  2  7  1  0  0  0  0
  3  4  1  0  0  0  0
  4  5  2  0  0  0  0
  4 13  1  0  0  0  0
  5  6  1  0  0  0  0
  6  7  2  0  0  0  0
  6  8  1  0  0  0  0
  8  9  1  0  0  0  0
  9 10  1  0  0  0  0
 10 11  2  0  0  0  0
 10 12  1  0  0  0  0
 13 14  1  0  0  0  0
 14 15  2  0  0  0  0
 14 19  1  0  0  0  0
 15 16  1  0  0  0  0
 16 17  2  0  0  0  0
 17 18  1  0  0  0  0
 18 19  2  0  0  0  0
 18 21  1  0  0  0  0
 19 20  1  0  0  0  0
M  END
>  <ActivityOutcome_CPDBAS_Rat>
active

>  <cdk:Formula>
[]

>  <TD50_Rat_mmol>
0.0135

>  <net.bioclipse.cdk.fingerprint>
AgkAA8CRKgQiAABOQAapAQcgFAACAABShgAAAkAETAJAAAHoDAARBAAAACIEAAoAYgAEAAIiBwFKJQII0AUAAUEFAAgGIIAAAEAIgQBgAAAAIASAkBGgAGDGEQAIGICIIKFAAsCwAhJABCACwAChRAIgAAChcCISAIAECEoCkBM=

$$$$

 OpenBabel04131118512D

 24 25  0  0  0  0  0  0  0  0999 V2000
   10.3662   -3.3262    0.0000 C   0  0  0  0  0  0  0  0  0  0  0  0
   11.5126   -3.9882    0.0000 N   0  0  0  0  0  0  0  0  0  0  0  0
    9.2036   -3.9882    0.0000 N   0  0  0  0  0  0  0  0  0  0  0  0
   10.3662   -2.0022    0.0000 C   0  0  0  0  0  0  0  0  0  0  0  0
   12.6751   -3.3262    0.0000 C   0  0  0  0  0  0  0  0  0  0  0  0
    8.0733   -3.3262    0.0000 C   0  0  0  0  0  0  0  0  0  0  0  0
    9.2036   -1.3240    0.0000 C   0  0  0  0  0  0  0  0  0  0  0  0
   13.8215   -3.9882    0.0000 C   0  0  0  0  0  0  0  0  0  0  0  0
   12.6751   -2.0022    0.0000 C   0  0  0  0  0  0  0  0  0  0  0  0
    8.0733   -2.0022    0.0000 N   0  0  0  0  0  0  0  0  0  0  0  0
    6.9269   -3.9882    0.0000 S   0  0  0  0  0  0  0  0  0  0  0  0
    9.2036    0.0000    0.0000 Cl  0  0  0  0  0  0  0  0  0  0  0  0
   15.0003   -3.3262    0.0000 C   0  0  0  0  0  0  0  0  0  0  0  0
   13.8215   -5.3123    0.0000 C   0  0  0  0  0  0  0  0  0  0  0  0
   13.8215   -1.3240    0.0000 C   0  0  0  0  0  0  0  0  0  0  0  0
    5.7482   -3.3262    0.0000 C   0  0  0  0  0  0  0  0  0  0  0  0
   15.0003   -2.0022    0.0000 C   0  0  0  0  0  0  0  0  0  0  0  0
   16.1467   -3.9882    0.0000 C   0  0  0  0  0  0  0  0  0  0  0  0
    4.6018   -3.9882    0.0000 C   0  0  0  0  0  0  0  0  0  0  0  0
    3.4392   -3.3262    0.0000 N   0  0  0  0  0  0  0  0  0  0  0  0
    4.6018   -5.3123    0.0000 O   0  0  0  0  0  0  0  0  0  0  0  0
    2.2928   -4.0044    0.0000 C   0  0  0  0  0  0  0  0  0  0  0  0
    1.1464   -3.3424    0.0000 C   0  0  0  0  0  0  0  0  0  0  0  0
    0.0000   -4.0044    0.0000 O   0  0  0  0  0  0  0  0  0  0  0  0
  1  2  1  0  0  0  0
  1  3  1  0  0  0  0
  1  4  2  0  0  0  0
  2  5  1  0  0  0  0
  3  6  2  0  0  0  0
  4  7  1  0  0  0  0
  5  8  1  0  0  0  0
  5  9  2  0  0  0  0
  6 10  1  0  0  0  0
  6 11  1  0  0  0  0
  7 12  1  0  0  0  0
  7 10  2  0  0  0  0
  8 13  2  0  0  0  0
  8 14  1  0  0  0  0
  9 15  1  0  0  0  0
 11 16  1  0  0  0  0
 13 17  1  0  0  0  0
 13 18  1  0  0  0  0
 15 17  2  0  0  0  0
 16 19  1  0  0  0  0
 19 20  1  0  0  0  0
 19 21  2  0  0  0  0
 20 22  1  0  0  0  0
 22 23  1  0  0  0  0
 23 24  1  0  0  0  0
M  END
>  <ActivityOutcome_CPDBAS_Rat>
active

>  <cdk:Formula>
[]

>  <TD50_Rat_mmol>
0.0177

>  <net.bioclipse.cdk.fingerprint>
AgkQA8CRLgQiAAhOQAapAQcgFAACAABShgAAQkAkTAJAAAHoDAABBAAAACIEAAMIYgQEAAIjBwFKNwII0AUAAdEFAAgWIIAAAEAIkQAgAIAAIATAkBHgAGDGEQAIGICIICFAAtCgAhJABCACwgChRAIgAACh8CcSAIAECEoC0BM=

$$$$

 OpenBabel04131118512D

  7  7  0  0  0  0  0  0  0  0999 V2000
    0.0000   -1.1496    0.0000 Cl  0  0  0  0  0  0  0  0  0  0  0  0
    1.3292   -1.1496    0.0000 C   0  0  0  0  0  0  0  0  0  0  0  0
    1.9958    0.0000    0.0000 C   0  0  0  0  0  0  0  0  0  0  0  0
    3.3250    0.0000    0.0000 C   0  0  0  0  0  0  0  0  0  0  0  0
    3.9916   -1.1496    0.0000 C   0  0  0  0  0  0  0  0  0  0  0  0
    3.3250   -2.3032    0.0000 C   0  0  0  0  0  0  0  0  0  0  0  0
    1.9958   -2.3032    0.0000 C   0  0  0  0  0  0  0  0  0  0  0  0
  1  2  1  0  0  0  0
  2  3  2  0  0  0  0
  2  7  1  0  0  0  0
  3  4  1  0  0  0  0
  4  5  2  0  0  0  0
  5  6  1  0  0  0  0
  6  7  2  0  0  0  0
M  END
>  <ActivityOutcome_CPDBAS_Rat>
active

>  <cdk:Formula>
[]

>  <TD50_Rat_mmol>
2.19

>  <net.bioclipse.cdk.fingerprint>
AMAAAAAAAAAAAAAAAAAgAAAAAAAAAEAAAAAAAAABAAAAAAAAAAAAAAAAAAAAAAAAAAAAAAAAAQEAAAAAAAAgAAAAgCAEAAAAAAIAAAAAAAAAAIAAAAAAAAAAAAAAAA==

$$$$

 OpenBabel04131118512D

 13 12  0  0  0  0  0  0  0  0999 V2000
    2.3072   -2.0007    0.0000 N   0  0  0  0  0  0  0  0  0  0  0  0
    3.4608   -2.6622    0.0000 C   0  0  0  0  0  0  0  0  0  0  0  0
    3.4608   -3.9933    0.0000 O   0  0  0  0  0  0  0  0  0  0  0  0
    4.6064   -2.0007    0.0000 N   0  0  0  0  0  0  0  0  0  0  0  0
    5.7600   -2.6622    0.0000 C   0  0  0  0  0  0  0  0  0  0  0  0
    6.9136   -2.0007    0.0000 C   0  0  0  0  0  0  0  0  0  0  0  0
    6.9136   -0.6696    0.0000 C   0  0  0  0  0  0  0  0  0  0  0  0
    8.0672   -2.6622    0.0000 O   0  0  0  0  0  0  0  0  0  0  0  0
    2.3072   -0.6696    0.0000 N   0  0  0  0  0  0  0  0  0  0  0  0
    3.4608    0.0000    0.0000 O   0  0  0  0  0  0  0  0  0  0  0  0
    1.1536   -2.6622    0.0000 C   0  0  0  0  0  0  0  0  0  0  0  0
    1.1536   -3.9933    0.0000 C   0  0  0  0  0  0  0  0  0  0  0  0
    0.0000   -2.0007    0.0000 Cl  0  0  0  0  0  0  0  0  0  0  0  0
  1  2  1  0  0  0  0
  1  9  1  0  0  0  0
  1 11  1  0  0  0  0
  2  3  2  0  0  0  0
  2  4  1  0  0  0  0
  4  5  1  0  0  0  0
  5  6  1  0  0  0  0
  6  7  1  0  0  0  0
  6  8  1  0  0  0  0
  9 10  2  0  0  0  0
 11 12  1  0  0  0  0
 11 13  1  0  0  0  0
M  END
>  <ActivityOutcome_CPDBAS_Rat>
active

>  <cdk:Formula>
[]

>  <TD50_Rat_mmol>
0.000592

>  <net.bioclipse.cdk.fingerprint>
CAAAAAIQAEoAAYAAAAAAAAAAAAAAAAAAAAAABIUAIOAAAAKAgAAAAAAAAQgiIEEAAyAAoAAAAADAAAADgAACAAEAAAEAAAAAAEAAgAAAkEAgAAAAAAAQAAAAAAAAAEQgFAAAAAAAAFAAAAAAAABAAABABAAAgAAACAMAAA==

$$$$

 OpenBabel04131118512D

  3  2  0  0  0  0  0  0  0  0999 V2000
    2.3030   -0.6656    0.0000 F   0  0  0  0  0  0  0  0  0  0  0  0
    1.1515    0.0000    0.0000 C   0  0  0  0  0  0  0  0  0  0  0  0
    0.0000   -0.6656    0.0000 Cl  0  0  0  0  0  0  0  0  0  0  0  0
  1  2  1  0  0  0  0
  2  3  1  0  0  0  0
M  END
>  <ActivityOutcome_CPDBAS_Rat>
active

>  <cdk:Formula>
[]

>  <TD50_Rat_mmol>
0.402

>  <net.bioclipse.cdk.fingerprint>
AMAAAAAAIAAAAAAAAAAAAAAAAgAAAAAAAAAAAAABAAAAAAAAAAAAAAAAAAAAAAAAAAAAAAAAAAAAAAAAAAAAAAAAAAAAAAAAAAAAAAAAAAAAAAAAAAAAAAAAAAAAAA==

$$$$

 OpenBabel04131118512D

  4  3  0  0  0  0  0  0  0  0999 V2000
    1.9950    0.0000    0.0000 Cl  0  0  0  0  0  0  0  0  0  0  0  0
    1.3292   -1.1518    0.0000 C   0  0  0  0  0  0  0  0  0  0  0  0
    1.9950   -2.3037    0.0000 Cl  0  0  0  0  0  0  0  0  0  0  0  0
    0.0000   -1.1518    0.0000 Cl  0  0  0  0  0  0  0  0  0  0  0  0
  1  2  1  0  0  0  0
  2  3  1  0  0  0  0
  2  4  1  0  0  0  0
M  END
>  <ActivityOutcome_CPDBAS_Rat>
active

>  <cdk:Formula>
[]

>  <TD50_Rat_mmol>
2.19

>  <net.bioclipse.cdk.fingerprint>
AMAAAAAAAAAAAAAAAAAAAAAABAAAAAAAAAAAAAABAAAAAAAAAAAAAAAAAAAAAAAAAAAAAAAAAAAAAAAAAAAAAAAAAAAAAAAAAAAAAAAAAAAAAAAAAAAAAAAAAAAAAA==

$$$$

 OpenBabel04131118512D

  4  3  0  0  0  0  0  0  0  0999 V2000
    3.4575    0.0000    0.0000 Cl  0  0  0  0  0  0  0  0  0  0  0  0
    2.3061   -0.6638    0.0000 C   0  0  0  0  0  0  0  0  0  0  0  0
    1.1513    0.0000    0.0000 O   0  0  0  0  0  0  0  0  0  0  0  0
    0.0000   -0.6638    0.0000 C   0  0  0  0  0  0  0  0  0  0  0  0
  1  2  1  0  0  0  0
  2  3  1  0  0  0  0
  3  4  1  0  0  0  0
M  END
>  <ActivityOutcome_CPDBAS_Rat>
active

>  <cdk:Formula>
[]

>  <TD50_Rat_mmol>
0.0683

>  <net.bioclipse.cdk.fingerprint>
AgAAAAAAAAAAAAAAAIAAAAAAAAAAAAAA4AAAAAAAAAAAAAAAAAAAAAAEAAAAAAAAAAAAAAEAAAAAAAAAAAAAAAAAAAAAAAAAAAAAAAAAAAAAAAAAAAAAAAAAAAAAAAAAAAAAAAgAAAAAAAAAAAAAAAAAAAAA

$$$$

 OpenBabel04131118512D

 13 13  0  0  0  0  0  0  0  0999 V2000
    2.6555    0.0000    0.0000 O   0  0  0  0  0  0  0  0  0  0  0  0
    1.9937   -1.1483    0.0000 C   0  0  0  0  0  0  0  0  0  0  0  0
    0.6619   -1.1483    0.0000 N   0  0  0  0  0  0  0  0  0  0  0  0
    0.0000   -2.3047    0.0000 C   0  0  0  0  0  0  0  0  0  0  0  0
    0.0000    0.0000    0.0000 C   0  0  0  0  0  0  0  0  0  0  0  0
    2.6555   -2.3047    0.0000 N   0  0  0  0  0  0  0  0  0  0  0  0
    3.9873   -2.3047    0.0000 C   0  0  0  0  0  0  0  0  0  0  0  0
    4.6492   -1.1483    0.0000 C   0  0  0  0  0  0  0  0  0  0  0  0
    5.9810   -1.1483    0.0000 C   0  0  0  0  0  0  0  0  0  0  0  0
    6.6429   -2.3047    0.0000 C   0  0  0  0  0  0  0  0  0  0  0  0
    5.9810   -3.4530    0.0000 C   0  0  0  0  0  0  0  0  0  0  0  0
    4.6492   -3.4530    0.0000 C   0  0  0  0  0  0  0  0  0  0  0  0
    7.9746   -2.3047    0.0000 Cl  0  0  0  0  0  0  0  0  0  0  0  0
  1  2  2  0  0  0  0
  2  3  1  0  0  0  0
  2  6  1  0  0  0  0
  3  4  1  0  0  0  0
  3  5  1  0  0  0  0
  6  7  1  0  0  0  0
  7  8  2  0  0  0  0
  7 12  1  0  0  0  0
  8  9  1  0  0  0  0
  9 10  2  0  0  0  0
 10 11  1  0  0  0  0
 10 13  1  0  0  0  0
 11 12  2  0  0  0  0
M  END
>  <ActivityOutcome_CPDBAS_Rat>
active

>  <cdk:Formula>
[]

>  <TD50_Rat_mmol>
0.659

>  <net.bioclipse.cdk.fingerprint>
ICCQAEQAAAAAAAAAAAAAAFAAAAEAAATAAgAIQOABAAEAAAAAAABAAQAgAAQAAAACAEAAAACABAABwAAAAAAAAQAAAAAABAAAAAAAAAAAAAAAAQEAAAAAAAAgCEAAgCAEAAAAABIAAAAAAABCAIBAAEAAAAAQAAIQAA==

$$$$

 OpenBabel04131118512D

 20 21  0  0  0  0  0  0  0  0999 V2000
    1.5031   -7.3083    0.0000 C   0  0  0  0  0  0  0  0  0  0  0  0
    0.3542   -6.6431    0.0000 N   0  0  0  0  0  0  0  0  0  0  0  0
    1.5031   -8.6386    0.0000 O   0  0  0  0  0  0  0  0  0  0  0  0
    2.6607   -6.6431    0.0000 O   0  0  0  0  0  0  0  0  0  0  0  0
    2.6607   -5.3128    0.0000 C   0  0  0  0  0  0  0  0  0  0  0  0
    1.3303   -5.3128    0.0000 C   0  0  0  0  0  0  0  0  0  0  0  0
    0.0000   -5.3128    0.0000 C   0  0  0  0  0  0  0  0  0  0  0  0
    3.9910   -5.3128    0.0000 C   0  0  0  0  0  0  0  0  0  0  0  0
    4.6476   -4.1638    0.0000 C   0  0  0  0  0  0  0  0  0  0  0  0
    5.9779   -4.1638    0.0000 C   0  0  0  0  0  0  0  0  0  0  0  0
    6.6431   -5.3128    0.0000 C   0  0  0  0  0  0  0  0  0  0  0  0
    5.9779   -6.4703    0.0000 C   0  0  0  0  0  0  0  0  0  0  0  0
    4.6476   -6.4703    0.0000 C   0  0  0  0  0  0  0  0  0  0  0  0
    2.6607   -3.9910    0.0000 C   0  0  0  0  0  0  0  0  0  0  0  0
    1.5031   -3.3259    0.0000 C   0  0  0  0  0  0  0  0  0  0  0  0
    1.5031   -1.9955    0.0000 C   0  0  0  0  0  0  0  0  0  0  0  0
    2.6607   -1.3303    0.0000 C   0  0  0  0  0  0  0  0  0  0  0  0
    3.8096   -1.9955    0.0000 C   0  0  0  0  0  0  0  0  0  0  0  0
    3.8096   -3.3259    0.0000 C   0  0  0  0  0  0  0  0  0  0  0  0
    2.6607    0.0000    0.0000 Cl  0  0  0  0  0  0  0  0  0  0  0  0
  1  2  1  0  0  0  0
  1  3  2  0  0  0  0
  1  4  1  0  0  0  0
  4  5  1  0  0  0  0
  5  6  1  0  0  0  0
  5  8  1  0  0  0  0
  5 14  1  0  0  0  0
  6  7  3  0  0  0  0
  8  9  1  0  0  0  0
  8 13  2  0  0  0  0
  9 10  2  0  0  0  0
 10 11  1  0  0  0  0
 11 12  2  0  0  0  0
 12 13  1  0  0  0  0
 14 15  1  0  0  0  0
 14 19  2  0  0  0  0
 15 16  2  0  0  0  0
 16 17  1  0  0  0  0
 17 18  2  0  0  0  0
 17 20  1  0  0  0  0
 18 19  1  0  0  0  0
M  END
>  <ActivityOutcome_CPDBAS_Rat>
active

>  <cdk:Formula>
[]

>  <TD50_Rat_mmol>
0.0307

>  <net.bioclipse.cdk.fingerprint>
AoAAAIAgAAIAAAACAICAABABAAAQAAAAgAQAAIAAIAAIAADgAAAAAAAAAQACAABAIAIBAAQgACBAAQAAQAAAAQAMSAAAAAAAEAAAAAAAIAAoAgAAAAAAAAGBEUAAAIAAIIBAAMAgBgATEEECQEgECACANACAQABBABHAAAgCIAA=

$$$$

 OpenBabel04131118512D

  5  4  0  0  0  0  0  0  0  0999 V2000
    2.2415   -0.6520    0.0000 C   0  0  0  0  0  0  0  0  0  0  0  0
    1.1191    0.0000    0.0000 C   0  0  0  0  0  0  0  0  0  0  0  0
    3.3606    0.0000    0.0000 C   0  0  0  0  0  0  0  0  0  0  0  0
    0.0000   -0.6520    0.0000 C   0  0  0  0  0  0  0  0  0  0  0  0
    2.2415   -2.0836    0.0000 Cl  0  0  0  0  0  0  0  0  0  0  0  0
  1  2  1  0  0  0  0
  1  3  2  0  0  0  0
  1  5  1  0  0  0  0
  2  4  2  0  0  0  0
M  END
>  <ActivityOutcome_CPDBAS_Rat>
active

>  <cdk:Formula>
[]

>  <TD50_Rat_mmol>
0.141

>  <net.bioclipse.cdk.fingerprint>
QAAAAAAAAAAAAAAAAAAAAAAAAAAAAAAAAAAEAIAAAAAAAMAAAAAAAAAAAAAAAAAgAAAAAgAQAAAAQAAAAAABAAAAAAAAAAAAAAAAAAAAAAAAAAAAAAAAAAAAAAAAAAAAAAAAAAAAAAAAAAAAAAAAAAAAAAAAAAAAAAAAAAAAAA==

$$$$

 OpenBabel04131118512D

 14 14  0  0  0  0  0  0  0  0999 V2000
    3.9898   -1.1504    0.0000 Cl  0  0  0  0  0  0  0  0  0  0  0  0
    3.3248   -2.3008    0.0000 C   0  0  0  0  0  0  0  0  0  0  0  0
    3.9898   -3.4578    0.0000 C   0  0  0  0  0  0  0  0  0  0  0  0
    3.3248   -4.6082    0.0000 C   0  0  0  0  0  0  0  0  0  0  0  0
    1.9949   -4.6082    0.0000 C   0  0  0  0  0  0  0  0  0  0  0  0
    1.3299   -3.4578    0.0000 C   0  0  0  0  0  0  0  0  0  0  0  0
    1.9949   -2.3008    0.0000 C   0  0  0  0  0  0  0  0  0  0  0  0
    1.3299   -1.1504    0.0000 C   0  0  0  0  0  0  0  0  0  0  0  0
    0.6650    0.0000    0.0000 N   0  0  0  0  0  0  0  0  0  0  0  0
    0.0000   -3.4578    0.0000 Cl  0  0  0  0  0  0  0  0  0  0  0  0
    1.3299   -5.7586    0.0000 Cl  0  0  0  0  0  0  0  0  0  0  0  0
    3.9898   -5.7586    0.0000 Cl  0  0  0  0  0  0  0  0  0  0  0  0
    5.3197   -3.4578    0.0000 C   0  0  0  0  0  0  0  0  0  0  0  0
    6.6497   -3.4578    0.0000 N   0  0  0  0  0  0  0  0  0  0  0  0
  1  2  1  0  0  0  0
  2  3  2  0  0  0  0
  2  7  1  0  0  0  0
  3  4  1  0  0  0  0
  3 13  1  0  0  0  0
  4  5  2  0  0  0  0
  4 12  1  0  0  0  0
  5  6  1  0  0  0  0
  5 11  1  0  0  0  0
  6  7  2  0  0  0  0
  6 10  1  0  0  0  0
  7  8  1  0  0  0  0
  8  9  3  0  0  0  0
 13 14  3  0  0  0  0
M  END
>  <ActivityOutcome_CPDBAS_Rat>
active

>  <cdk:Formula>
[]

>  <TD50_Rat_mmol>
8.54

>  <net.bioclipse.cdk.fingerprint>
AQhAAAAAAAAAAAAYAAAAAAAAAAAAAAAAAAAAAAAAAAAAAADgCAQAAACAAAAAAAAAMAkAAAAAAABASAAIAAAAAQAEAAAAAAAAAAAACAAAAAAABgAAAAAEAAGBAAAAAIAAIAQQAMAgBAAAAAFiQAAIAAAAACCAAAAgAAAABAAIAAA=

$$$$

 OpenBabel04131118512D

 20 20  0  0  0  0  0  0  0  0999 V2000
    5.9873    0.0000    0.0000 O   0  0  0  0  0  0  0  0  0  0  0  0
    6.6467   -1.1485    0.0000 C   0  0  1  0  0  0  0  0  0  0  0  0
    7.9760   -1.1485    0.0000 O   0  0  0  0  0  0  0  0  0  0  0  0
    8.6460   -2.2971    0.0000 C   0  0  2  0  0  0  0  0  0  0  0  0
    9.9647   -2.2971    0.0000 C   0  0  0  0  0  0  0  0  0  0  0  0
   10.6347   -1.1485    0.0000 O   0  0  0  0  0  0  0  0  0  0  0  0
    7.9760   -3.4563    0.0000 C   0  0  1  0  0  0  0  0  0  0  0  0
    8.6460   -4.6048    0.0000 O   0  0  0  0  0  0  0  0  0  0  0  0
    6.6467   -3.4563    0.0000 C   0  0  2  0  0  0  0  0  0  0  0  0
    5.9873   -4.6048    0.0000 O   0  0  0  0  0  0  0  0  0  0  0  0
    5.9873   -2.2971    0.0000 C   0  0  1  0  0  0  0  0  0  0  0  0
    4.6580   -2.2971    0.0000 N   0  0  0  0  0  0  0  0  0  0  0  0
    3.9880   -3.4563    0.0000 C   0  0  0  0  0  0  0  0  0  0  0  0
    4.6580   -4.6048    0.0000 O   0  0  0  0  0  0  0  0  0  0  0  0
    2.6587   -3.4563    0.0000 N   0  0  0  0  0  0  0  0  0  0  0  0
    1.9887   -2.2971    0.0000 C   0  0  0  0  0  0  0  0  0  0  0  0
    0.6594   -2.2971    0.0000 C   0  0  0  0  0  0  0  0  0  0  0  0
    0.0000   -3.4563    0.0000 Cl  0  0  0  0  0  0  0  0  0  0  0  0
    1.9887   -4.6048    0.0000 N   0  0  0  0  0  0  0  0  0  0  0  0
    0.6594   -4.6048    0.0000 O   0  0  0  0  0  0  0  0  0  0  0  0
  2  1  1  1  0  0  0
  2  3  1  0  0  0  0
  2 11  1  0  0  0  0
  3  4  1  0  0  0  0
  4  5  1  6  0  0  0
  4  7  1  0  0  0  0
  5  6  1  0  0  0  0
  7  8  1  1  0  0  0
  7  9  1  0  0  0  0
  9 10  1  6  0  0  0
  9 11  1  0  0  0  0
 11 12  1  1  0  0  0
 12 13  1  0  0  0  0
 13 14  2  0  0  0  0
 13 15  1  0  0  0  0
 15 16  1  0  0  0  0
 15 19  1  0  0  0  0
 16 17  1  0  0  0  0
 17 18  1  0  0  0  0
 19 20  2  0  0  0  0
M  END
>  <ActivityOutcome_CPDBAS_Rat>
active

>  <cdk:Formula>
[]

>  <TD50_Rat_mmol>
0.00012

>  <net.bioclipse.cdk.fingerprint>
AIAGAAkAAEASEAhLBBWAAJ0QCQAAAQEQwUAEIigAAAQVAyDgRIACgIAEgAAIAIEYJiJjAAKgAOAAAAFAw2IAA4AAAAgBAQBBEAAAAEAABMABAUBCIKhAQBVIEQAAAEIBAABkYAABAAABAAAgARAAACAAQAQAQHQAAIAYAAoLAAA=

$$$$

 OpenBabel04131118512D

 18 20  0  0  0  0  0  0  0  0999 V2000
    3.4563   -5.3227    0.0000 O   0  0  0  0  0  0  0  0  0  0  0  0
    3.4563   -3.9955    0.0000 C   0  0  0  0  0  0  0  0  0  0  0  0
    2.3019   -3.3249    0.0000 C   0  0  0  0  0  0  0  0  0  0  0  0
    2.3019   -1.9977    0.0000 C   0  0  0  0  0  0  0  0  0  0  0  0
    1.1544   -1.3341    0.0000 C   0  0  0  0  0  0  0  0  0  0  0  0
    0.0000   -1.9977    0.0000 C   0  0  0  0  0  0  0  0  0  0  0  0
    0.0000   -3.3249    0.0000 C   0  0  0  0  0  0  0  0  0  0  0  0
    1.1544   -3.9955    0.0000 C   0  0  0  0  0  0  0  0  0  0  0  0
    1.1544   -5.3227    0.0000 O   0  0  0  0  0  0  0  0  0  0  0  0
    3.4563   -1.3341    0.0000 C   0  0  0  0  0  0  0  0  0  0  0  0
    3.4563    0.0000    0.0000 O   0  0  0  0  0  0  0  0  0  0  0  0
    4.6107   -1.9977    0.0000 C   0  0  0  0  0  0  0  0  0  0  0  0
    5.7582   -1.3341    0.0000 C   0  0  0  0  0  0  0  0  0  0  0  0
    6.9126   -1.9977    0.0000 C   0  0  0  0  0  0  0  0  0  0  0  0
    6.9126   -3.3249    0.0000 C   0  0  0  0  0  0  0  0  0  0  0  0
    5.7582   -3.9955    0.0000 C   0  0  0  0  0  0  0  0  0  0  0  0
    4.6107   -3.3249    0.0000 C   0  0  0  0  0  0  0  0  0  0  0  0
    5.7582   -5.3227    0.0000 O   0  0  0  0  0  0  0  0  0  0  0  0
  1  2  2  0  0  0  0
  2  3  1  0  0  0  0
  2 17  1  0  0  0  0
  3  4  2  0  0  0  0
  3  8  1  0  0  0  0
  4  5  1  0  0  0  0
  4 10  1  0  0  0  0
  5  6  2  0  0  0  0
  6  7  1  0  0  0  0
  7  8  2  0  0  0  0
  8  9  1  0  0  0  0
 10 11  2  0  0  0  0
 10 12  1  0  0  0  0
 12 13  2  0  0  0  0
 12 17  1  0  0  0  0
 13 14  1  0  0  0  0
 14 15  2  0  0  0  0
 15 16  1  0  0  0  0
 16 17  2  0  0  0  0
 16 18  1  0  0  0  0
M  END
>  <ActivityOutcome_CPDBAS_Rat>
active

>  <cdk:Formula>
[]

>  <TD50_Rat_mmol>
1.02

>  <net.bioclipse.cdk.fingerprint>
CAAAAAAAAYGCAIgAABABACAAAAAAAAAAAAAARAh4AAJpAQABhIAAAAFCAAEAIAAEIAABAABAAQIQQAAgAAQGCAEABABBCAAAIAAAYoAIAAAAwACAAACAAAAACIAAIABIAEAgIAACAAAGQCAEEAAAFACAEAhBKAAAAAAAAAA=

$$$$

 OpenBabel04131118512D

 18 19  0  0  0  0  0  0  0  0999 V2000
   10.7602   -3.1958    0.0000 Cl  0  0  0  0  0  0  0  0  0  0  0  0
    9.4474   -2.9698    0.0000 C   0  0  0  0  0  0  0  0  0  0  0  0
    8.2961   -2.3027    0.0000 C   0  0  0  0  0  0  0  0  0  0  0  0
    6.9618   -2.3027    0.0000 C   0  0  0  0  0  0  0  0  0  0  0  0
    6.2947   -3.4540    0.0000 C   0  0  0  0  0  0  0  0  0  0  0  0
    4.9712   -3.4540    0.0000 C   0  0  0  0  0  0  0  0  0  0  0  0
    4.3041   -2.3027    0.0000 C   0  0  0  0  0  0  0  0  0  0  0  0
    4.9712   -1.1513    0.0000 C   0  0  0  0  0  0  0  0  0  0  0  0
    6.2947   -1.1513    0.0000 C   0  0  0  0  0  0  0  0  0  0  0  0
    2.9698   -2.3027    0.0000 O   0  0  0  0  0  0  0  0  0  0  0  0
    2.3027   -1.1513    0.0000 C   0  0  0  0  0  0  0  0  0  0  0  0
    1.1513   -1.8185    0.0000 C   0  0  0  0  0  0  0  0  0  0  0  0
    1.1513   -3.1420    0.0000 O   0  0  0  0  0  0  0  0  0  0  0  0
    0.0000   -1.1513    0.0000 O   0  0  0  0  0  0  0  0  0  0  0  0
    1.6355    0.0000    0.0000 C   0  0  0  0  0  0  0  0  0  0  0  0
    3.4540   -0.4842    0.0000 C   0  0  0  0  0  0  0  0  0  0  0  0
    9.4474   -1.6355    0.0000 C   0  0  0  0  0  0  0  0  0  0  0  0
    8.9955   -4.2180    0.0000 Cl  0  0  0  0  0  0  0  0  0  0  0  0
  1  2  1  0  0  0  0
  2  3  1  0  0  0  0
  2 17  1  0  0  0  0
  2 18  1  0  0  0  0
  3  4  1  0  0  0  0
  3 17  1  0  0  0  0
  4  5  2  0  0  0  0
  4  9  1  0  0  0  0
  5  6  1  0  0  0  0
  6  7  2  0  0  0  0
  7  8  1  0  0  0  0
  7 10  1  0  0  0  0
  8  9  2  0  0  0  0
 10 11  1  0  0  0  0
 11 12  1  0  0  0  0
 11 15  1  0  0  0  0
 11 16  1  0  0  0  0
 12 13  2  0  0  0  0
 12 14  1  0  0  0  0
M  END
>  <ActivityOutcome_CPDBAS_Rat>
active

>  <cdk:Formula>
[]

>  <TD50_Rat_mmol>
0.00681

>  <net.bioclipse.cdk.fingerprint>
BAAAAAACAAAAAABSABAARAAIAAAAAAAAgAACIAAAAIAIAALhAAAAAAAAAA0AIAAYIAIgKAaAAAhAAAAIQAAAAwAGGAAgAIAARCAABAAAAIAAEAgAAAgEAICAFCAIAsAAIADCAEAgICEAAAACQBAEAYAAHACAUCAEAAAAAAAgAAA=

$$$$

 OpenBabel04131118512D

 18 19  0  0  0  0  0  0  0  0999 V2000
    4.6531    0.0000    0.0000 C   0  0  0  0  0  0  0  0  0  0  0  0
    3.9906   -1.1493    0.0000 C   0  0  0  0  0  0  0  0  0  0  0  0
    4.6531   -2.2986    0.0000 C   0  0  0  0  0  0  0  0  0  0  0  0
    3.9906   -3.4559    0.0000 C   0  0  0  0  0  0  0  0  0  0  0  0
    4.6531   -4.6052    0.0000 C   0  0  0  0  0  0  0  0  0  0  0  0
    5.9859   -4.6052    0.0000 O   0  0  0  0  0  0  0  0  0  0  0  0
    6.6484   -3.4559    0.0000 C   0  0  2  0  0  0  0  0  0  0  0  0
    5.9859   -2.2986    0.0000 C   0  0  2  0  0  0  0  0  0  0  0  0
    6.6484   -1.1493    0.0000 C   0  0  0  0  0  0  0  0  0  0  0  0
    7.9813   -3.4559    0.0000 C   0  0  0  0  0  0  0  0  0  0  0  0
    2.6578   -3.4559    0.0000 C   0  0  0  0  0  0  0  0  0  0  0  0
    1.9953   -2.2986    0.0000 C   0  0  0  0  0  0  0  0  0  0  0  0
    2.6578   -1.1493    0.0000 C   0  0  0  0  0  0  0  0  0  0  0  0
    1.9953    0.0000    0.0000 O   0  0  0  0  0  0  0  0  0  0  0  0
    0.6624   -2.2986    0.0000 C   0  0  0  0  0  0  0  0  0  0  0  0
    0.0000   -1.1493    0.0000 O   0  0  0  0  0  0  0  0  0  0  0  0
    0.0000   -3.4559    0.0000 O   0  0  0  0  0  0  0  0  0  0  0  0
    1.9953   -4.6052    0.0000 O   0  0  0  0  0  0  0  0  0  0  0  0
  1  2  1  0  0  0  0
  2  3  2  0  0  0  0
  2 13  1  0  0  0  0
  3  4  1  0  0  0  0
  3  8  1  0  0  0  0
  4  5  2  0  0  0  0
  4 11  1  0  0  0  0
  5  6  1  0  0  0  0
  6  7  1  0  0  0  0
  7  8  1  0  0  0  0
  7 10  1  6  0  0  0
  8  9  1  1  0  0  0
 11 12  2  0  0  0  0
 11 18  1  0  0  0  0
 12 13  1  0  0  0  0
 12 15  1  0  0  0  0
 13 14  2  0  0  0  0
 15 16  2  0  0  0  0
 15 17  1  0  0  0  0
M  END
>  <ActivityOutcome_CPDBAS_Rat>
active

>  <cdk:Formula>
[]

>  <TD50_Rat_mmol>
0.0299

>  <net.bioclipse.cdk.fingerprint>
QACBABMAIgQiKQIAAAAAAUAIBokEZADAAAgEUAEFIokBrOIAAwIACEAhAEEQARAoEigAGBAQEEAIECJEZAQAAEAAIYVEMAAJLQBAUqABQxBAABAEAQBQBEAwAAAAAIAJAEAAIAAAICEAAEAAEBQDXAAgAAT4OABAACJAECAAKA==

$$$$

 OpenBabel04131118512D

 29 31  0  0  0  0  0  0  0  0999 V2000
    3.4246   -6.0145    0.0000 O   0  0  0  0  0  0  0  0  0  0  0  0
    3.3604   -7.6733    0.0000 C   0  0  2  0  0  0  0  0  0  0  0  0
    2.5792   -8.7435    0.0000 C   0  0  0  0  0  0  0  0  0  0  0  0
    3.3604   -9.8030    0.0000 C   0  0  0  0  0  0  0  0  0  0  0  0
    4.6018   -9.3856    0.0000 N   0  3  0  0  0  0  0  0  0  0  0  0
    5.8433   -9.8030    0.0000 C   0  0  0  0  0  0  0  0  0  0  0  0
    6.6138   -8.7435    0.0000 C   0  0  0  0  0  0  0  0  0  0  0  0
    5.8433   -7.6733    0.0000 C   0  0  0  0  0  0  0  0  0  0  0  0
    5.8433   -6.0145    0.0000 C   0  0  0  0  0  0  0  0  0  0  0  0
    6.8385   -5.3617    0.0000 O   0  0  0  0  0  0  0  0  0  0  0  0
    6.8385   -4.0667    0.0000 C   0  0  0  0  0  0  0  0  0  0  0  0
    5.6827   -3.4032    0.0000 C   0  0  2  0  0  0  0  0  0  0  0  0
    4.5590   -4.0667    0.0000 C   0  0  2  0  0  0  0  0  0  0  0  0
    3.4246   -3.4032    0.0000 C   0  0  0  0  0  0  0  0  0  0  0  0
    2.2795   -4.0667    0.0000 C   0  0  0  0  0  0  0  0  0  0  0  0
    2.2795   -5.3617    0.0000 C   0  0  0  0  0  0  0  0  0  0  0  0
    4.6018   -8.0693    0.0000 C   0  0  0  0  0  0  0  0  0  0  0  0
    4.6018   -6.7743    0.0000 O   0  5  0  0  0  0  0  0  0  0  0  0
    4.6018  -10.7019    0.0000 C   0  0  0  0  0  0  0  0  0  0  0  0
    7.9622   -3.4032    0.0000 O   0  0  0  0  0  0  0  0  0  0  0  0
    6.3463   -2.2688    0.0000 O   0  0  0  0  0  0  0  0  0  0  0  0
    5.6827   -1.1451    0.0000 C   0  0  0  0  0  0  0  0  0  0  0  0
    4.3664   -1.1451    0.0000 O   0  0  0  0  0  0  0  0  0  0  0  0
    5.0299   -2.2688    0.0000 C   0  0  0  0  0  0  0  0  0  0  0  0
    4.5590   -5.3617    0.0000 C   0  0  0  0  0  0  0  0  0  0  0  0
    1.1451   -3.4032    0.0000 C   0  0  0  0  0  0  0  0  0  0  0  0
    0.0000   -4.0667    0.0000 C   0  0  0  0  0  0  0  0  0  0  0  0
    1.1451   -6.0145    0.0000 O   0  0  0  0  0  0  0  0  0  0  0  0
    6.3463    0.0000    0.0000 C   0  0  0  0  0  0  0  0  0  0  0  0
  1 16  1  0  0  0  0
  2  1  1  1  0  0  0
  2  3  1  0  0  0  0
  2 17  1  0  0  0  0
  3  4  1  0  0  0  0
  4  5  1  0  0  0  0
  5  6  1  0  0  0  0
  5 17  1  0  0  0  0
  5 19  1  0  0  0  0
  6  7  1  0  0  0  0
  7  8  2  0  0  0  0
  8  9  1  0  0  0  0
  8 17  1  0  0  0  0
  9 10  1  0  0  0  0
 10 11  1  0  0  0  0
 11 12  1  0  0  0  0
 11 20  2  0  0  0  0
 12 13  1  0  0  0  0
 12 24  1  1  0  0  0
 12 21  1  6  0  0  0
 13 14  1  0  0  0  0
 13 25  1  1  0  0  0
 14 15  2  0  0  0  0
 15 16  1  0  0  0  0
 15 26  1  0  0  0  0
 16 28  2  0  0  0  0
 17 18  1  0  0  0  0
 21 22  1  0  0  0  0
 22 29  1  0  0  0  0
 22 23  2  0  0  0  0
 26 27  2  0  0  0  0
M  CHG  2   5   1  18  -1
M  END
>  <ActivityOutcome_CPDBAS_Rat>
active

>  <cdk:Formula>
[]

>  <TD50_Rat_mmol>
0.00123

>  <net.bioclipse.cdk.fingerprint>
AtC8JUlDBi1uIQiCJIMBQxMURgINDDEC6TAEBcsAACASEwBixIwIAABioAlIAADZbgYyJkyQECIhAUAhxUQQQBAQBAWOUgHAQAQAIUagUekJQAhTIGREUGAhMwQAAEIohQlKRxABAAmFiAggQBAgB7VACYQE+HvAGEroyMBCgCg=

$$$$

 OpenBabel04131118512D

 16 16  0  0  0  0  0  0  0  0999 V2000
    4.6068   -5.3201    0.0000 C   0  0  0  0  0  0  0  0  0  0  0  0
    4.6068   -3.9880    0.0000 C   0  0  0  0  0  0  0  0  0  0  0  0
    4.6068   -2.6644    0.0000 O   0  0  0  0  0  0  0  0  0  0  0  0
    3.4551   -1.9940    0.0000 C   0  0  0  0  0  0  0  0  0  0  0  0
    2.3034   -2.6644    0.0000 C   0  0  0  0  0  0  0  0  0  0  0  0
    1.1517   -1.9940    0.0000 C   0  0  0  0  0  0  0  0  0  0  0  0
    1.1517   -0.6704    0.0000 C   0  0  0  0  0  0  0  0  0  0  0  0
    2.3034    0.0000    0.0000 C   0  0  0  0  0  0  0  0  0  0  0  0
    3.4551   -0.6704    0.0000 C   0  0  0  0  0  0  0  0  0  0  0  0
    0.0000    0.0000    0.0000 Cl  0  0  0  0  0  0  0  0  0  0  0  0
    5.9390   -3.9880    0.0000 C   0  0  0  0  0  0  0  0  0  0  0  0
    6.6008   -5.1397    0.0000 O   0  0  0  0  0  0  0  0  0  0  0  0
    6.6008   -2.8363    0.0000 O   0  0  0  0  0  0  0  0  0  0  0  0
    7.9329   -2.8363    0.0000 C   0  0  0  0  0  0  0  0  0  0  0  0
    8.5947   -1.6846    0.0000 C   0  0  0  0  0  0  0  0  0  0  0  0
    3.2746   -3.9880    0.0000 C   0  0  0  0  0  0  0  0  0  0  0  0
  1  2  1  0  0  0  0
  2  3  1  0  0  0  0
  2 11  1  0  0  0  0
  2 16  1  0  0  0  0
  3  4  1  0  0  0  0
  4  5  2  0  0  0  0
  4  9  1  0  0  0  0
  5  6  1  0  0  0  0
  6  7  2  0  0  0  0
  7  8  1  0  0  0  0
  7 10  1  0  0  0  0
  8  9  2  0  0  0  0
 11 12  2  0  0  0  0
 11 13  1  0  0  0  0
 13 14  1  0  0  0  0
 14 15  1  0  0  0  0
M  END
>  <ActivityOutcome_CPDBAS_Rat>
active

>  <cdk:Formula>
[]

>  <TD50_Rat_mmol>
0.696

>  <net.bioclipse.cdk.fingerprint>
BIAAAAIAAAAAAABCABAABAAAAAAAAAAAgAAAAYAAAIAIAALhAIAAAAAgAAgAAABYIAIgKACAAABgAAAIQAAAAQACEAAAAAAAQQAABAAAAIAAAAAAACAAQIEBEAAIAEAAIABAAIAgJCEAAAESAAAAAYAAAACAUAAAAAAAAAAiBAA=

$$$$

 OpenBabel04131118512D

 11 12  0  0  0  0  0  0  0  0999 V2000
    0.0000   -2.6606    0.0000 O   0  0  0  0  0  0  0  0  0  0  0  0
    1.1518   -1.9983    0.0000 C   0  0  0  0  0  0  0  0  0  0  0  0
    2.3036   -2.6606    0.0000 O   0  0  0  0  0  0  0  0  0  0  0  0
    3.4554   -1.9983    0.0000 C   0  0  0  0  0  0  0  0  0  0  0  0
    3.4554   -0.6680    0.0000 C   0  0  0  0  0  0  0  0  0  0  0  0
    4.6071    0.0000    0.0000 C   0  0  0  0  0  0  0  0  0  0  0  0
    5.7589   -0.6680    0.0000 C   0  0  0  0  0  0  0  0  0  0  0  0
    5.7589   -1.9983    0.0000 C   0  0  0  0  0  0  0  0  0  0  0  0
    4.6071   -2.6606    0.0000 C   0  0  0  0  0  0  0  0  0  0  0  0
    2.3036    0.0000    0.0000 C   0  0  0  0  0  0  0  0  0  0  0  0
    1.1518   -0.6680    0.0000 C   0  0  0  0  0  0  0  0  0  0  0  0
  1  2  2  0  0  0  0
  2  3  1  0  0  0  0
  2 11  1  0  0  0  0
  3  4  1  0  0  0  0
  4  5  2  0  0  0  0
  4  9  1  0  0  0  0
  5  6  1  0  0  0  0
  5 10  1  0  0  0  0
  6  7  2  0  0  0  0
  7  8  1  0  0  0  0
  8  9  2  0  0  0  0
 10 11  2  0  0  0  0
M  END
>  <ActivityOutcome_CPDBAS_Rat>
active

>  <cdk:Formula>
[]

>  <TD50_Rat_mmol>
0.268

>  <net.bioclipse.cdk.fingerprint>
QAAhEgAAhAAAEAIAEAAEEgAAAAQgIACAAAAAgAoABEIADmEQQAAAAAAICAAAgBAgAgAgAJAQAEAAAAgAAAACAAYYIABECBEAAAAEABAAgAAAAEAAAAgAAIAwmAICgAAhAEQAQCAgIAAAEAJBAAgAARIAAIBwCAAAAAAAACAgAA==

$$$$

 OpenBabel04131118512D

 10 10  0  0  0  0  0  0  0  0999 V2000
    5.7597   -1.9986    0.0000 C   0  0  0  0  0  0  0  0  0  0  0  0
    4.6078   -2.6610    0.0000 O   0  0  0  0  0  0  0  0  0  0  0  0
    3.4558   -1.9986    0.0000 C   0  0  0  0  0  0  0  0  0  0  0  0
    2.3039   -2.6610    0.0000 C   0  0  0  0  0  0  0  0  0  0  0  0
    1.1519   -1.9986    0.0000 C   0  0  0  0  0  0  0  0  0  0  0  0
    1.1519   -0.6681    0.0000 C   0  0  0  0  0  0  0  0  0  0  0  0
    2.3039    0.0000    0.0000 C   0  0  0  0  0  0  0  0  0  0  0  0
    3.4558   -0.6681    0.0000 C   0  0  0  0  0  0  0  0  0  0  0  0
    0.0000    0.0000    0.0000 N   0  0  0  0  0  0  0  0  0  0  0  0
    0.0000   -2.6610    0.0000 C   0  0  0  0  0  0  0  0  0  0  0  0
  1  2  1  0  0  0  0
  2  3  1  0  0  0  0
  3  4  2  0  0  0  0
  3  8  1  0  0  0  0
  4  5  1  0  0  0  0
  5  6  2  0  0  0  0
  5 10  1  0  0  0  0
  6  7  1  0  0  0  0
  6  9  1  0  0  0  0
  7  8  2  0  0  0  0
M  END
>  <ActivityOutcome_CPDBAS_Rat>
active

>  <cdk:Formula>
[]

>  <TD50_Rat_mmol>
3.43

>  <net.bioclipse.cdk.fingerprint>
IgiAAgAAAAAAAAAAAAAAQIAAAAAABAACAAACYQAAAICAAAAAAAAAAGAAACAAAAAAQAAAAAAAAAAABhAAAAAAAAAAAgQAAACAAAEAAAAAAAAAgAAAAACAACAAAABAICAgAAAAAkAAAAAAAAAAgAAAAAAAAAAAIhAA

$$$$

 OpenBabel04131118512D

 10 10  0  0  0  0  0  0  0  0999 V2000
    1.9929    0.0000    0.0000 N   0  0  0  0  0  0  0  0  0  0  0  0
    2.6571   -1.1490    0.0000 C   0  0  0  0  0  0  0  0  0  0  0  0
    3.9917   -1.1490    0.0000 C   0  0  0  0  0  0  0  0  0  0  0  0
    4.6560   -2.3040    0.0000 C   0  0  0  0  0  0  0  0  0  0  0  0
    3.9917   -3.4531    0.0000 C   0  0  0  0  0  0  0  0  0  0  0  0
    2.6571   -3.4531    0.0000 C   0  0  0  0  0  0  0  0  0  0  0  0
    1.9929   -2.3040    0.0000 C   0  0  0  0  0  0  0  0  0  0  0  0
    0.6643   -2.3040    0.0000 O   0  0  0  0  0  0  0  0  0  0  0  0
    0.0000   -3.4531    0.0000 C   0  0  0  0  0  0  0  0  0  0  0  0
    5.9845   -2.3040    0.0000 C   0  0  0  0  0  0  0  0  0  0  0  0
  1  2  1  0  0  0  0
  2  3  2  0  0  0  0
  2  7  1  0  0  0  0
  3  4  1  0  0  0  0
  4  5  2  0  0  0  0
  4 10  1  0  0  0  0
  5  6  1  0  0  0  0
  6  7  2  0  0  0  0
  7  8  1  0  0  0  0
  8  9  1  0  0  0  0
M  END
>  <ActivityOutcome_CPDBAS_Rat>
active

>  <cdk:Formula>
[]

>  <TD50_Rat_mmol>
0.714

>  <net.bioclipse.cdk.fingerprint>
IAAAAgAQAAEAAAAAAAAAQIAAAAAABAACAAACYQAAAAAAAAAAAAAAACAAACAAAAAAQAAAgAAAAAAADhAAAAAAAIAAAAQAAACAABAAAAAAAAAAgAAAAACAACAAAABAICAgAAAAAkAAAAAAAAAAgAAiAAAAAAAAIhAA

$$$$

 OpenBabel04131118512D

  5  4  0  0  0  0  0  0  0  0999 V2000
    0.0000   -0.6638    0.0000 C   0  0  0  0  0  0  0  0  0  0  0  0
    1.1525    0.0000    0.0000 C   0  0  0  0  0  0  0  0  0  0  0  0
    2.3050   -0.6638    0.0000 C   0  0  0  0  0  0  0  0  0  0  0  0
    3.4575    0.0000    0.0000 C   0  0  0  0  0  0  0  0  0  0  0  0
    4.6099   -0.6638    0.0000 O   0  0  0  0  0  0  0  0  0  0  0  0
  1  2  1  0  0  0  0
  2  3  2  0  0  0  0
  3  4  1  0  0  0  0
  4  5  2  0  0  0  0
M  END
>  <ActivityOutcome_CPDBAS_Rat>
active

>  <cdk:Formula>
[]

>  <TD50_Rat_mmol>
0.0599

>  <net.bioclipse.cdk.fingerprint>
QAAAAAAAAAAAAAAAAAAAAAAAAAAAAAAAAAAAAAAAAAAAAGAAAAAAAAAAAAAAAAAgAAAAAAAQAAAAAAAAAAAAAAAAAABAAAAAAAAAAAAAAAAAAAAAAAAAAAAAAAAAAAAAAEAAAAAAAAAAAAAAAAAAAAAAAAAwCAAAAAAAAAAAAA==

$$$$

 OpenBabel04131118512D

 16 16  0  0  0  0  0  0  0  0999 V2000
    5.7576   -1.1826    0.0000 C   0  0  0  0  0  0  0  0  0  0  0  0
    4.6268   -0.5187    0.0000 N   0  0  0  0  0  0  0  0  0  0  0  0
    5.7576   -2.5313    0.0000 N   0  0  0  0  0  0  0  0  0  0  0  0
    3.4753   -2.5313    0.0000 N   0  0  0  0  0  0  0  0  0  0  0  0
    3.4753   -1.1826    0.0000 C   0  0  0  0  0  0  0  0  0  0  0  0
    4.6268   -3.1952    0.0000 C   0  0  0  0  0  0  0  0  0  0  0  0
   10.3740   -2.4586    0.0000 N   0  0  0  0  0  0  0  0  0  0  0  0
    6.9298   -0.5083    0.0000 N   0  0  0  0  0  0  0  0  0  0  0  0
    9.2432   -1.8362    0.0000 C   0  0  0  0  0  0  0  0  0  0  0  0
    8.0710   -1.1826    0.0000 C   0  0  0  0  0  0  0  0  0  0  0  0
    2.3030   -0.5083    0.0000 N   0  0  0  0  0  0  0  0  0  0  0  0
    4.6268   -4.5231    0.0000 Cl  0  0  0  0  0  0  0  0  0  0  0  0
    8.7245    0.0000    0.0000 C   0  0  0  0  0  0  0  0  0  0  0  0
    7.4485   -2.3134    0.0000 C   0  0  0  0  0  0  0  0  0  0  0  0
    1.1411   -1.1826    0.0000 C   0  0  0  0  0  0  0  0  0  0  0  0
    0.0000   -0.5083    0.0000 C   0  0  0  0  0  0  0  0  0  0  0  0
  1  2  1  0  0  0  0
  1  3  2  0  0  0  0
  1  8  1  0  0  0  0
  2  5  2  0  0  0  0
  3  6  1  0  0  0  0
  4  6  2  0  0  0  0
  4  5  1  0  0  0  0
  5 11  1  0  0  0  0
  6 12  1  0  0  0  0
  7  9  3  0  0  0  0
  8 10  1  0  0  0  0
  9 10  1  0  0  0  0
 10 13  1  0  0  0  0
 10 14  1  0  0  0  0
 11 15  1  0  0  0  0
 15 16  1  0  0  0  0
M  END
>  <ActivityOutcome_CPDBAS_Rat>
active

>  <cdk:Formula>
[]

>  <TD50_Rat_mmol>
0.0263

>  <net.bioclipse.cdk.fingerprint>
BAAAAgGACgQKQAAIAAChAABIAAAAAAAABBAAAAAAACQgAADgAAAAAAAAAIAAAAAEIgAAAQAAAAAAFAAAwIQAASAAAAESAAAIAEAAgIAABIAAAAAAAAEAACAAEAQAAAAAgAAAIAAAEBAAACAAEACIAAAAAAAAADAgAAAQAAACAAI=

$$$$

 OpenBabel04131118512D

  7  7  0  0  0  0  0  0  0  0999 V2000
    0.0000   -2.2427    0.0000 C   0  0  0  0  0  0  0  0  0  0  0  0
    1.2194   -1.7157    0.0000 C   0  0  0  0  0  0  0  0  0  0  0  0
    0.1462   -3.5737    0.0000 C   0  0  0  0  0  0  0  0  0  0  0  0
    2.1003   -2.6927    0.0000 C   0  0  0  0  0  0  0  0  0  0  0  0
    1.4425   -3.8468    0.0000 C   0  0  0  0  0  0  0  0  0  0  0  0
    1.4887   -0.4001    0.0000 N   0  0  0  0  0  0  0  0  0  0  0  0
    2.7581    0.0000    0.0000 O   0  0  0  0  0  0  0  0  0  0  0  0
  1  2  1  0  0  0  0
  1  3  1  0  0  0  0
  2  4  1  0  0  0  0
  2  6  2  0  0  0  0
  3  5  1  0  0  0  0
  4  5  1  0  0  0  0
  6  7  1  0  0  0  0
M  END
>  <ActivityOutcome_CPDBAS_Rat>
active

>  <cdk:Formula>
[]

>  <TD50_Rat_mmol>
0.413

>  <net.bioclipse.cdk.fingerprint>
CEAAAAAAGAAAAAIAAAAAAAgAAAAAAAAAAAAAAAEAYAAAAAAAAAAAAAAAACAgAAAAAAAAAAAAAEAAAAAAAAAAAAABAAAAAAAAAAAAAAABAAAAAAAAAAAAAAAAAAAAAAAAAAAAAAAAAAAQAYAAAAAAAAAAAAAAAAAAAAAA

$$$$

 OpenBabel04131118512D

 25 27  0  0  0  0  0  0  0  0999 V2000
    5.6808   -3.9930    0.0000 C   0  0  0  0  0  0  0  0  0  0  0  0
    5.6808   -5.3206    0.0000 O   0  0  0  0  0  0  0  0  0  0  0  0
    4.5281   -3.3344    0.0000 C   0  0  0  0  0  0  0  0  0  0  0  0
    3.3858   -3.9930    0.0000 C   0  0  0  0  0  0  0  0  0  0  0  0
    4.5384   -2.0068    0.0000 C   0  0  0  0  0  0  0  0  0  0  0  0
    2.2332   -3.3344    0.0000 C   0  0  0  0  0  0  0  0  0  0  0  0
    3.3755   -1.3379    0.0000 C   0  0  0  0  0  0  0  0  0  0  0  0
    2.2332   -2.0068    0.0000 C   0  0  0  0  0  0  0  0  0  0  0  0
    6.8334   -3.3241    0.0000 N   0  0  0  0  0  0  0  0  0  0  0  0
    1.0806   -4.0033    0.0000 O   0  0  0  0  0  0  0  0  0  0  0  0
    1.0806   -5.3206    0.0000 C   0  0  0  0  0  0  0  0  0  0  0  0
    0.0000   -6.1027    0.0000 C   0  0  0  0  0  0  0  0  0  0  0  0
    0.4116   -7.3685    0.0000 C   0  0  0  0  0  0  0  0  0  0  0  0
    1.7495   -7.3685    0.0000 C   0  0  0  0  0  0  0  0  0  0  0  0
    2.1509   -6.1027    0.0000 C   0  0  0  0  0  0  0  0  0  0  0  0
   10.2912   -5.3206    0.0000 N   0  0  0  0  0  0  0  0  0  0  0  0
    9.1386   -5.9895    0.0000 C   0  0  0  0  0  0  0  0  0  0  0  0
   10.2912   -3.9930    0.0000 C   0  0  0  0  0  0  0  0  0  0  0  0
    9.1386   -3.3241    0.0000 C   0  0  0  0  0  0  0  0  0  0  0  0
    7.9860   -5.3206    0.0000 C   0  0  0  0  0  0  0  0  0  0  0  0
    7.9860   -3.9930    0.0000 C   0  0  0  0  0  0  0  0  0  0  0  0
    9.1386   -1.9965    0.0000 Cl  0  0  0  0  0  0  0  0  0  0  0  0
    6.8334   -5.9895    0.0000 Cl  0  0  0  0  0  0  0  0  0  0  0  0
    1.0806   -1.3379    0.0000 O   0  0  0  0  0  0  0  0  0  0  0  0
    1.0806    0.0000    0.0000 C   0  0  0  0  0  0  0  0  0  0  0  0
  1  2  2  0  0  0  0
  1  3  1  0  0  0  0
  1  9  1  0  0  0  0
  3  4  2  0  0  0  0
  3  5  1  0  0  0  0
  4  6  1  0  0  0  0
  5  7  2  0  0  0  0
  6  8  2  0  0  0  0
  6 10  1  0  0  0  0
  7  8  1  0  0  0  0
  8 24  1  0  0  0  0
  9 21  1  0  0  0  0
 10 11  1  0  0  0  0
 11 12  1  0  0  0  0
 11 15  1  0  0  0  0
 12 13  1  0  0  0  0
 13 14  1  0  0  0  0
 14 15  1  0  0  0  0
 16 17  2  0  0  0  0
 16 18  1  0  0  0  0
 17 20  1  0  0  0  0
 18 19  2  0  0  0  0
 19 21  1  0  0  0  0
 19 22  1  0  0  0  0
 20 21  2  0  0  0  0
 20 23  1  0  0  0  0
 24 25  1  0  0  0  0
M  END
>  <ActivityOutcome_CPDBAS_Rat>
active

>  <cdk:Formula>
[]

>  <TD50_Rat_mmol>
0.00404

>  <net.bioclipse.cdk.fingerprint>
YAgAQgCQCiBiCMBOIBAoBAEgAIAIgAIIgABGAQAFzCTACQPrAAAAhICABCgAAAAYIAYgJACAAgBBKARIwAAACcEGEAAAAAQCEQRiFGAAAJAFkwAABAAgQBGDMAAAQICAKABQEsAgITABECAOYBIAQFAEQgCIUjjiAIEAAANiAAA=

$$$$

 OpenBabel04131118512D

 14 14  0  0  0  0  0  0  0  0999 V2000
    6.6332   -4.5371    0.0000 Cl  0  0  0  0  0  0  0  0  0  0  0  0
    5.7776   -3.5156    0.0000 C   0  0  0  0  0  0  0  0  0  0  0  0
    4.4708   -3.7478    0.0000 C   0  0  0  0  0  0  0  0  0  0  0  0
    3.6151   -2.7329    0.0000 N   0  0  0  0  0  0  0  0  0  0  0  0
    4.0662   -1.4792    0.0000 C   0  0  0  0  0  0  0  0  0  0  0  0
    5.3796   -1.2470    0.0000 C   0  0  0  0  0  0  0  0  0  0  0  0
    5.8306    0.0000    0.0000 Cl  0  0  0  0  0  0  0  0  0  0  0  0
    2.3017   -2.9584    0.0000 P   0  0  0  0  0  0  0  0  0  0  0  0
    2.7594   -4.2121    0.0000 O   0  0  0  0  0  0  0  0  0  0  0  0
    1.1542   -3.6284    0.0000 N   0  0  0  0  0  0  0  0  0  0  0  0
    0.0000   -2.9584    0.0000 C   0  0  0  0  0  0  0  0  0  0  0  0
    0.0000   -1.6318    0.0000 C   0  0  0  0  0  0  0  0  0  0  0  0
    1.1542   -0.9685    0.0000 C   0  0  0  0  0  0  0  0  0  0  0  0
    2.3017   -1.6318    0.0000 O   0  0  0  0  0  0  0  0  0  0  0  0
  1  2  1  0  0  0  0
  2  3  1  0  0  0  0
  3  4  1  0  0  0  0
  4  5  1  0  0  0  0
  4  8  1  0  0  0  0
  5  6  1  0  0  0  0
  6  7  1  0  0  0  0
  8  9  2  0  0  0  0
  8 10  1  0  0  0  0
  8 14  1  0  0  0  0
 10 11  1  0  0  0  0
 11 12  1  0  0  0  0
 12 13  1  0  0  0  0
 13 14  1  0  0  0  0
M  END
>  <ActivityOutcome_CPDBAS_Rat>
active

>  <cdk:Formula>
[]

>  <TD50_Rat_mmol>
0.00846

>  <net.bioclipse.cdk.fingerprint>
AhAAAAAAAAIBwAIAEQAAAAACAAACAAAAABAABAAACAAJAeAABAAAAAAAAkAEABAgAggBAgAAgAAAAEjAAKABAAINGIAAgAAQAAAAAIQAgAAAAAgAAAAAAAQQAAAAAABEAOAAEAAMDAAAAAAwBgAAAAAAAAQgQAIAAEgAEAOAAg==

$$$$

 OpenBabel04131118512D

 13 13  0  0  0  0  0  0  0  0999 V2000
    0.0000   -3.9000    0.0000 C   0  0  0  0  0  0  0  0  0  0  0  0
    0.9384   -2.9616    0.0000 N   0  0  0  0  0  0  0  0  0  0  0  0
    0.5990   -1.6771    0.0000 C   0  0  0  0  0  0  0  0  0  0  0  0
    2.2229   -3.3077    0.0000 N   0  0  0  0  0  0  0  0  0  0  0  0
    3.1613   -2.3626    0.0000 N   0  0  0  0  0  0  0  0  0  0  0  0
    4.4258   -2.7753    0.0000 C   0  0  0  0  0  0  0  0  0  0  0  0
    5.5040   -1.9966    0.0000 C   0  0  0  0  0  0  0  0  0  0  0  0
    6.5821   -2.7753    0.0000 N   0  0  0  0  0  0  0  0  0  0  0  0
    6.1695   -4.0398    0.0000 C   0  0  0  0  0  0  0  0  0  0  0  0
    4.8384   -4.0398    0.0000 N   0  0  0  0  0  0  0  0  0  0  0  0
    5.5040   -0.6655    0.0000 C   0  0  0  0  0  0  0  0  0  0  0  0
    4.3526    0.0000    0.0000 N   0  0  0  0  0  0  0  0  0  0  0  0
    6.6553    0.0000    0.0000 O   0  0  0  0  0  0  0  0  0  0  0  0
  1  2  1  0  0  0  0
  2  3  1  0  0  0  0
  2  4  1  0  0  0  0
  4  5  2  0  0  0  0
  5  6  1  0  0  0  0
  6  7  2  0  0  0  0
  6 10  1  0  0  0  0
  7  8  1  0  0  0  0
  7 11  1  0  0  0  0
  8  9  1  0  0  0  0
  9 10  2  0  0  0  0
 11 12  1  0  0  0  0
 11 13  2  0  0  0  0
M  END
>  <ActivityOutcome_CPDBAS_Rat>
active

>  <cdk:Formula>
[]

>  <TD50_Rat_mmol>
0.0039

>  <net.bioclipse.cdk.fingerprint>
IAACAINCBQIggCIQAEAAgABgAAAAAAAAAAAAAEUCBEAIAGAAQAQAEAEBgAAAIAFgAAyCBAEAIEAACMCAwAAQEQAABAQAQCCCQAQAAgAABAAAAAAAQRAEIAAAAgAAgAhAAEAwAABAHAAAAABAAAEAAAQAIARQBEAAAAEAQAsAAg==

$$$$

 OpenBabel04131118512D

 11 10  0  0  0  0  0  0  0  0999 V2000
    3.4621   -3.3249    0.0000 O   0  0  0  0  0  0  0  0  0  0  0  0
    3.4621   -1.9933    0.0000 C   0  0  0  0  0  0  0  0  0  0  0  0
    4.6081   -1.3316    0.0000 C   0  0  0  0  0  0  0  0  0  0  0  0
    5.7622   -1.9933    0.0000 C   0  0  0  0  0  0  0  0  0  0  0  0
    6.9162   -1.3316    0.0000 C   0  0  0  0  0  0  0  0  0  0  0  0
    6.9162    0.0000    0.0000 O   0  0  0  0  0  0  0  0  0  0  0  0
    8.0702   -1.9933    0.0000 O   0  0  0  0  0  0  0  0  0  0  0  0
    2.3081   -1.3316    0.0000 N   0  0  0  0  0  0  0  0  0  0  0  0
    1.1540   -1.9933    0.0000 N   0  0  0  0  0  0  0  0  0  0  0  0
    1.1540   -3.3249    0.0000 C   0  0  0  0  0  0  0  0  0  0  0  0
    0.0000   -1.3316    0.0000 C   0  0  0  0  0  0  0  0  0  0  0  0
  1  2  2  0  0  0  0
  2  3  1  0  0  0  0
  2  8  1  0  0  0  0
  3  4  1  0  0  0  0
  4  5  1  0  0  0  0
  5  6  2  0  0  0  0
  5  7  1  0  0  0  0
  8  9  1  0  0  0  0
  9 10  1  0  0  0  0
  9 11  1  0  0  0  0
M  END
>  <ActivityOutcome_CPDBAS_Rat>
active

>  <cdk:Formula>
[]

>  <TD50_Rat_mmol>
15.6

>  <net.bioclipse.cdk.fingerprint>
AIAAAAAAAAACAAACAAOAAAAAAAAAAAAAAAAAAAAAAEAEAABgAAACAAAABAAAAAAQIAACAAAAAAAAAEAgwAAAAgAAAAAAAABACAAAAAAAAABAAAAAAAAAAAAQEAAAAAAAAABAIAAAAAgAAAAAABAAAQAAAACAUBAAAAAAAAADAAA=

$$$$

 OpenBabel04131118512D

 17 18  0  0  0  0  0  0  0  0999 V2000
    5.3218   -2.6609    0.0000 O   0  0  0  0  0  0  0  0  0  0  0  0
    5.3218   -1.3304    0.0000 S   0  0  0  0  0  0  0  0  0  0  0  0
    5.3218    0.0000    0.0000 O   0  0  0  0  0  0  0  0  0  0  0  0
    3.9913   -1.3304    0.0000 C   0  0  0  0  0  0  0  0  0  0  0  0
    3.3208   -0.1809    0.0000 C   0  0  0  0  0  0  0  0  0  0  0  0
    1.9903   -0.1809    0.0000 C   0  0  0  0  0  0  0  0  0  0  0  0
    1.3304   -1.3304    0.0000 C   0  0  0  0  0  0  0  0  0  0  0  0
    1.9903   -2.4799    0.0000 C   0  0  0  0  0  0  0  0  0  0  0  0
    3.3208   -2.4799    0.0000 C   0  0  0  0  0  0  0  0  0  0  0  0
    0.0000   -1.3304    0.0000 N   0  0  0  0  0  0  0  0  0  0  0  0
    6.6522   -1.3304    0.0000 C   0  0  0  0  0  0  0  0  0  0  0  0
    7.3121   -0.1809    0.0000 C   0  0  0  0  0  0  0  0  0  0  0  0
    8.6532   -0.1809    0.0000 C   0  0  0  0  0  0  0  0  0  0  0  0
    9.3131   -1.3304    0.0000 C   0  0  0  0  0  0  0  0  0  0  0  0
    8.6532   -2.4799    0.0000 C   0  0  0  0  0  0  0  0  0  0  0  0
    7.3121   -2.4799    0.0000 C   0  0  0  0  0  0  0  0  0  0  0  0
   10.6435   -1.3304    0.0000 N   0  0  0  0  0  0  0  0  0  0  0  0
  1  2  2  0  0  0  0
  2  3  2  0  0  0  0
  2  4  1  0  0  0  0
  2 11  1  0  0  0  0
  4  5  2  0  0  0  0
  4  9  1  0  0  0  0
  5  6  1  0  0  0  0
  6  7  2  0  0  0  0
  7  8  1  0  0  0  0
  7 10  1  0  0  0  0
  8  9  2  0  0  0  0
 11 12  2  0  0  0  0
 11 16  1  0  0  0  0
 12 13  1  0  0  0  0
 13 14  2  0  0  0  0
 14 15  1  0  0  0  0
 14 17  1  0  0  0  0
 15 16  2  0  0  0  0
M  END
>  <ActivityOutcome_CPDBAS_Rat>
active

>  <cdk:Formula>
[]

>  <TD50_Rat_mmol>
0.0902

>  <net.bioclipse.cdk.fingerprint>
AICAAAAAAAAgAAAAAAAAAAABAAAgAABAAAAAEAAMAAIAAAFgAAAABAAAAACAAAAAAAAAAAAQAABAAAAQAACAAAAAAAAAABAAAEAAACAAAAAAICAAgAAAACABABAAAAAAIAAAAIAgQAAAAEACgBAAAAAEAACAACAgAQAEAAADEAA=

$$$$

 OpenBabel04131118512D

 19 20  0  0  0  0  0  0  0  0999 V2000
    3.2800   -1.3268    0.0000 Cl  0  0  0  0  0  0  0  0  0  0  0  0
    4.6068   -1.3268    0.0000 C   0  0  0  0  0  0  0  0  0  0  0  0
    4.6068   -2.6535    0.0000 C   0  0  0  0  0  0  0  0  0  0  0  0
    5.7585   -3.3169    0.0000 C   0  0  0  0  0  0  0  0  0  0  0  0
    6.9102   -2.6535    0.0000 C   0  0  0  0  0  0  0  0  0  0  0  0
    8.0619   -3.3169    0.0000 C   0  0  0  0  0  0  0  0  0  0  0  0
    8.0619   -4.6529    0.0000 C   0  0  0  0  0  0  0  0  0  0  0  0
    6.9102   -5.3162    0.0000 C   0  0  0  0  0  0  0  0  0  0  0  0
    5.7585   -4.6529    0.0000 C   0  0  0  0  0  0  0  0  0  0  0  0
    9.2136   -5.3162    0.0000 Cl  0  0  0  0  0  0  0  0  0  0  0  0
    3.4551   -3.3169    0.0000 C   0  0  0  0  0  0  0  0  0  0  0  0
    3.4551   -4.6529    0.0000 C   0  0  0  0  0  0  0  0  0  0  0  0
    2.3034   -5.3162    0.0000 C   0  0  0  0  0  0  0  0  0  0  0  0
    1.1517   -4.6529    0.0000 C   0  0  0  0  0  0  0  0  0  0  0  0
    1.1517   -3.3169    0.0000 C   0  0  0  0  0  0  0  0  0  0  0  0
    2.3034   -2.6535    0.0000 C   0  0  0  0  0  0  0  0  0  0  0  0
    0.0000   -5.3162    0.0000 Cl  0  0  0  0  0  0  0  0  0  0  0  0
    4.6068    0.0000    0.0000 Cl  0  0  0  0  0  0  0  0  0  0  0  0
    5.9336   -1.3268    0.0000 Cl  0  0  0  0  0  0  0  0  0  0  0  0
  1  2  1  0  0  0  0
  2  3  1  0  0  0  0
  2 18  1  0  0  0  0
  2 19  1  0  0  0  0
  3  4  1  0  0  0  0
  3 11  1  0  0  0  0
  4  5  2  0  0  0  0
  4  9  1  0  0  0  0
  5  6  1  0  0  0  0
  6  7  2  0  0  0  0
  7  8  1  0  0  0  0
  7 10  1  0  0  0  0
  8  9  2  0  0  0  0
 11 12  2  0  0  0  0
 11 16  1  0  0  0  0
 12 13  1  0  0  0  0
 13 14  2  0  0  0  0
 14 15  1  0  0  0  0
 14 17  1  0  0  0  0
 15 16  2  0  0  0  0
M  END
>  <ActivityOutcome_CPDBAS_Rat>
active

>  <cdk:Formula>
[]

>  <TD50_Rat_mmol>
0.239

>  <net.bioclipse.cdk.fingerprint>
AIAAABABAAAAAAAAAAAAAAAAAAAIAADAAAAAAAAAAAECAAAAIAAAAAYAAABAAQAAQAAAAQAECAAgAIAAECAAAAAAIAAIAAAAAAAAAIGBAAAAAIAAIACAAMAgBAAQAAECQEAEAAgAFACAAABBAAAAAAAAAAA=

$$$$

 OpenBabel04131118512D

 23 24  0  0  0  0  0  0  0  0999 V2000
    5.8146   -4.3836    0.0000 Br  0  0  0  0  0  0  0  0  0  0  0  0
    6.6410   -3.3860    0.0000 C   0  0  0  0  0  0  0  0  0  0  0  0
    6.4193   -2.1162    0.0000 C   0  0  0  0  0  0  0  0  0  0  0  0
    7.4169   -1.2798    0.0000 C   0  0  0  0  0  0  0  0  0  0  0  0
    8.6363   -1.7232    0.0000 C   0  0  0  0  0  0  0  0  0  0  0  0
    8.8580   -3.0030    0.0000 C   0  0  0  0  0  0  0  0  0  0  0  0
    7.8603   -3.8294    0.0000 C   0  0  0  0  0  0  0  0  0  0  0  0
    8.0921   -5.1092    0.0000 Br  0  0  0  0  0  0  0  0  0  0  0  0
   10.0773   -3.4464    0.0000 Br  0  0  0  0  0  0  0  0  0  0  0  0
    9.6238   -0.8868    0.0000 Br  0  0  0  0  0  0  0  0  0  0  0  0
    7.1851    0.0000    0.0000 Br  0  0  0  0  0  0  0  0  0  0  0  0
    4.8371   -1.5318    0.0000 O   0  0  0  0  0  0  0  0  0  0  0  0
    3.3759   -2.3782    0.0000 C   0  0  0  0  0  0  0  0  0  0  0  0
    3.3759   -3.6782    0.0000 C   0  0  0  0  0  0  0  0  0  0  0  0
    2.2472   -4.3232    0.0000 C   0  0  0  0  0  0  0  0  0  0  0  0
    1.1287   -3.6782    0.0000 C   0  0  0  0  0  0  0  0  0  0  0  0
    1.1287   -2.3782    0.0000 C   0  0  0  0  0  0  0  0  0  0  0  0
    2.2472   -1.7333    0.0000 C   0  0  0  0  0  0  0  0  0  0  0  0
    2.2472   -0.4333    0.0000 Br  0  0  0  0  0  0  0  0  0  0  0  0
    0.0000   -1.7333    0.0000 Br  0  0  0  0  0  0  0  0  0  0  0  0
    0.0000   -4.3232    0.0000 Br  0  0  0  0  0  0  0  0  0  0  0  0
    2.2472   -5.6231    0.0000 Br  0  0  0  0  0  0  0  0  0  0  0  0
    4.3635   -4.5146    0.0000 Br  0  0  0  0  0  0  0  0  0  0  0  0
  1  2  1  0  0  0  0
  2  3  2  0  0  0  0
  2  7  1  0  0  0  0
  3  4  1  0  0  0  0
  3 12  1  0  0  0  0
  4  5  2  0  0  0  0
  4 11  1  0  0  0  0
  5  6  1  0  0  0  0
  5 10  1  0  0  0  0
  6  7  2  0  0  0  0
  6  9  1  0  0  0  0
  7  8  1  0  0  0  0
 12 13  1  0  0  0  0
 13 14  2  0  0  0  0
 13 18  1  0  0  0  0
 14 15  1  0  0  0  0
 14 23  1  0  0  0  0
 15 16  2  0  0  0  0
 15 22  1  0  0  0  0
 16 17  1  0  0  0  0
 16 21  1  0  0  0  0
 17 18  2  0  0  0  0
 17 20  1  0  0  0  0
 18 19  1  0  0  0  0
M  END
>  <ActivityOutcome_CPDBAS_Rat>
active

>  <cdk:Formula>
[]

>  <TD50_Rat_mmol>
3.48

>  <net.bioclipse.cdk.fingerprint>
EAAABAABgARgAgAAAAAAAAEAEoAAAIAAAAAgABAAAQIC4QAAIAQAAAAAAAAQAAgAACAAAAAAQAAAAABAAAAAAhQAAAAAAAgAAAQBAQiBAAAAAAAAGgAAAA4AAAEAACABBAEAICAgAACAAgAAAAAAAAAAgAgAAAAAAAAIIAAA

$$$$

 OpenBabel04131118512D

 21 24  0  0  0  0  0  0  0  0999 V2000
    3.4767   -3.6917    0.0000 C   0  0  1  0  0  0  0  0  0  0  0  0
    6.9354   -1.6846    0.0000 C   0  0  1  0  0  0  0  0  0  0  0  0
    3.4767   -5.0179    0.0000 C   0  0  0  0  0  0  0  0  0  0  0  0
    4.6146   -3.0197    0.0000 C   0  0  0  0  0  0  0  0  0  0  0  0
    6.9354   -3.0197    0.0000 C   0  0  0  0  0  0  0  0  0  0  0  0
    5.7795   -3.6917    0.0000 C   0  0  0  0  0  0  0  0  0  0  0  0
    4.6146   -5.6809    0.0000 C   0  0  0  0  0  0  0  0  0  0  0  0
    8.1899   -1.2724    0.0000 C   0  0  0  0  0  0  0  0  0  0  0  0
    5.7705   -1.0305    0.0000 C   0  0  0  0  0  0  0  0  0  0  0  0
    5.7795   -5.0358    0.0000 C   0  0  0  0  0  0  0  0  0  0  0  0
    4.6146   -1.6846    0.0000 C   0  0  0  0  0  0  0  0  0  0  0  0
    2.3208   -3.0197    0.0000 C   0  0  0  0  0  0  0  0  0  0  0  0
    8.1899   -3.4229    0.0000 C   0  0  0  0  0  0  0  0  0  0  0  0
    2.3208   -5.6809    0.0000 C   0  0  0  0  0  0  0  0  0  0  0  0
    8.9605   -2.3476    0.0000 C   0  0  0  0  0  0  0  0  0  0  0  0
    8.6200    0.0000    0.0000 O   0  0  0  0  0  0  0  0  0  0  0  0
    1.1559   -3.6917    0.0000 C   0  0  0  0  0  0  0  0  0  0  0  0
    1.1559   -5.0179    0.0000 C   0  0  2  0  0  0  0  0  0  0  0  0
    3.4767   -2.3566    0.0000 C   0  0  0  0  0  0  0  0  0  0  0  0
    6.9354   -0.3943    0.0000 C   0  0  0  0  0  0  0  0  0  0  0  0
    0.0000   -5.6809    0.0000 O   0  0  0  0  0  0  0  0  0  0  0  0
  1  3  1  0  0  0  0
  1  4  1  0  0  0  0
  1 12  1  0  0  0  0
  1 19  1  1  0  0  0
  2  9  1  0  0  0  0
  2  8  1  0  0  0  0
  2 20  1  1  0  0  0
  2  5  1  0  0  0  0
  3  7  2  0  0  0  0
  3 14  1  0  0  0  0
  4  6  1  0  0  0  0
  4 11  1  0  0  0  0
  5  6  1  0  0  0  0
  5 13  1  0  0  0  0
  6 10  1  0  0  0  0
  7 10  1  0  0  0  0
  8 16  2  0  0  0  0
  8 15  1  0  0  0  0
  9 11  1  0  0  0  0
 12 17  1  0  0  0  0
 13 15  1  0  0  0  0
 14 18  1  0  0  0  0
 17 18  1  0  0  0  0
 18 21  1  1  0  0  0
M  END
>  <ActivityOutcome_CPDBAS_Rat>
active

>  <cdk:Formula>
[]

>  <TD50_Rat_mmol>
0.29

>  <net.bioclipse.cdk.fingerprint>
QAAAAAAAAAAAAAIRAAQAAAAIBogEQABAAAAAAAEAAAFRCOAAAAAAAAAAACAQABAgACAAAAAQAEAAACBAQAQAAAAAIAQABAAIAARAAiABAQAAAAAAAAAAAAAQAAAAAAAAAEAAAQBAACAAAAAAEAABAAAAAACQGAAAAABABAAAIA==

$$$$

 OpenBabel04131118512D

 24 27  0  0  0  0  0  0  0  0999 V2000
    5.7622   -3.6914    0.0000 C   0  0  1  0  0  0  0  0  0  0  0  0
    9.2285   -1.6881    0.0000 C   0  0  1  0  0  0  0  0  0  0  0  0
    5.7622   -5.0306    0.0000 C   0  0  0  0  0  0  0  0  0  0  0  0
    6.9101   -3.0161    0.0000 C   0  0  0  0  0  0  0  0  0  0  0  0
    9.2285   -3.0161    0.0000 C   0  0  0  0  0  0  0  0  0  0  0  0
    8.0805   -3.6914    0.0000 C   0  0  0  0  0  0  0  0  0  0  0  0
    6.9101   -5.6834    0.0000 C   0  0  0  0  0  0  0  0  0  0  0  0
   10.4889   -1.2717    0.0000 C   0  0  0  0  0  0  0  0  0  0  0  0
    8.0580   -1.0354    0.0000 C   0  0  0  0  0  0  0  0  0  0  0  0
    8.0805   -5.0419    0.0000 C   0  0  0  0  0  0  0  0  0  0  0  0
    6.9101   -1.6881    0.0000 C   0  0  0  0  0  0  0  0  0  0  0  0
    4.6142   -3.0161    0.0000 C   0  0  0  0  0  0  0  0  0  0  0  0
   10.4889   -3.4213    0.0000 C   0  0  0  0  0  0  0  0  0  0  0  0
    4.6142   -5.6834    0.0000 C   0  0  0  0  0  0  0  0  0  0  0  0
   11.2542   -2.3409    0.0000 C   0  0  0  0  0  0  0  0  0  0  0  0
   10.9166    0.0000    0.0000 O   0  0  0  0  0  0  0  0  0  0  0  0
    3.4550   -3.6914    0.0000 C   0  0  0  0  0  0  0  0  0  0  0  0
    3.4550   -5.0306    0.0000 C   0  0  2  0  0  0  0  0  0  0  0  0
    5.7622   -2.3634    0.0000 C   0  0  0  0  0  0  0  0  0  0  0  0
    9.2285   -0.4052    0.0000 C   0  0  0  0  0  0  0  0  0  0  0  0
    2.3071   -5.6834    0.0000 O   0  0  0  0  0  0  0  0  0  0  0  0
    1.1479   -5.0194    0.0000 C   0  0  0  0  0  0  0  0  0  0  0  0
    1.1479   -3.6914    0.0000 O   0  0  0  0  0  0  0  0  0  0  0  0
    0.0000   -5.6834    0.0000 C   0  0  0  0  0  0  0  0  0  0  0  0
  1  3  1  0  0  0  0
  1  4  1  0  0  0  0
  1 12  1  0  0  0  0
  1 19  1  1  0  0  0
  2  9  1  0  0  0  0
  2  8  1  0  0  0  0
  2 20  1  1  0  0  0
  2  5  1  0  0  0  0
  3  7  2  0  0  0  0
  3 14  1  0  0  0  0
  4  6  1  0  0  0  0
  4 11  1  0  0  0  0
  5  6  1  0  0  0  0
  5 13  1  0  0  0  0
  6 10  1  0  0  0  0
  7 10  1  0  0  0  0
  8 16  2  0  0  0  0
  8 15  1  0  0  0  0
  9 11  1  0  0  0  0
 12 17  1  0  0  0  0
 13 15  1  0  0  0  0
 14 18  1  0  0  0  0
 17 18  1  0  0  0  0
 18 21  1  1  0  0  0
 21 22  1  0  0  0  0
 22 23  2  0  0  0  0
 22 24  1  0  0  0  0
M  END
>  <ActivityOutcome_CPDBAS_Rat>
active

>  <cdk:Formula>
[]

>  <TD50_Rat_mmol>
0.15

>  <net.bioclipse.cdk.fingerprint>
AMCAAAACAAAIAAACEQAEBBAgCAaIBEAAwAAAAIABAAABUQjgAIAAAAAAAAEgEABQIAMgAAAAEABAAAAgQEQEAAAAACAEBAQACAwEQEIgAQEAAAAQAAAAQABBEAAAAAAIAABIAQEAQAAgAABAQBAAAwAAAAAA0BiAAAAAQASAACA=

$$$$

 OpenBabel04131118512D

 20 22  0  0  0  0  0  0  0  0999 V2000
    6.5477   -2.5129    0.0000 N   0  0  0  0  0  0  0  0  0  0  0  0
    7.6980   -3.1854    0.0000 C   0  0  0  0  0  0  0  0  0  0  0  0
    7.6980   -4.5126    0.0000 O   0  0  0  0  0  0  0  0  0  0  0  0
    8.8482   -2.5129    0.0000 C   0  0  0  0  0  0  0  0  0  0  0  0
    6.5477   -1.1857    0.0000 C   0  0  0  0  0  0  0  0  0  0  0  0
    5.3974   -0.5220    0.0000 O   0  0  0  0  0  0  0  0  0  0  0  0
    7.6980   -0.5220    0.0000 C   0  0  0  0  0  0  0  0  0  0  0  0
    5.3974   -3.1854    0.0000 C   0  0  0  0  0  0  0  0  0  0  0  0
    4.2472   -2.5129    0.0000 C   0  0  0  0  0  0  0  0  0  0  0  0
    3.9640   -1.2211    0.0000 C   0  0  0  0  0  0  0  0  0  0  0  0
    2.6456   -1.0795    0.0000 C   0  0  0  0  0  0  0  0  0  0  0  0
    2.1059   -2.2917    0.0000 C   0  0  0  0  0  0  0  0  0  0  0  0
    3.0880   -3.1854    0.0000 C   0  0  0  0  0  0  0  0  0  0  0  0
    3.0880   -4.5126    0.0000 C   0  0  0  0  0  0  0  0  0  0  0  0
    4.2472   -5.1762    0.0000 C   0  0  0  0  0  0  0  0  0  0  0  0
    5.3974   -4.5126    0.0000 C   0  0  0  0  0  0  0  0  0  0  0  0
    0.7786   -2.4333    0.0000 C   0  0  0  0  0  0  0  0  0  0  0  0
    0.0000   -1.3538    0.0000 C   0  0  0  0  0  0  0  0  0  0  0  0
    0.5397   -0.1416    0.0000 C   0  0  0  0  0  0  0  0  0  0  0  0
    1.8670    0.0000    0.0000 C   0  0  0  0  0  0  0  0  0  0  0  0
  1  2  1  0  0  0  0
  1  5  1  0  0  0  0
  1  8  1  0  0  0  0
  2  3  2  0  0  0  0
  2  4  1  0  0  0  0
  5  6  2  0  0  0  0
  5  7  1  0  0  0  0
  8  9  1  0  0  0  0
  8 16  2  0  0  0  0
  9 10  1  0  0  0  0
  9 13  2  0  0  0  0
 10 11  1  0  0  0  0
 11 12  2  0  0  0  0
 11 20  1  0  0  0  0
 12 13  1  0  0  0  0
 12 17  1  0  0  0  0
 13 14  1  0  0  0  0
 14 15  2  0  0  0  0
 15 16  1  0  0  0  0
 17 18  2  0  0  0  0
 18 19  1  0  0  0  0
 19 20  2  0  0  0  0
M  END
>  <ActivityOutcome_CPDBAS_Rat>
active

>  <cdk:Formula>
[]

>  <TD50_Rat_mmol>
0.0716

>  <net.bioclipse.cdk.fingerprint>
AZQQADAAICIFEAAAgAhBsA0EAAAAAUABAIAABhTAAggAAGAgEAAAAIgAAAYEA4JgAAQAAAaGAEAhAADABAEAwAUI0IAAAUEAAAAABIEg0AgACALAgICIQoAgAAQIgABgQEkAQCAAAAAAUKpgASUAAAYUKIDQAkEQqA4EAAISAA==

$$$$

 OpenBabel04131118512D

  9  8  0  0  0  0  0  0  0  0999 V2000
    2.6588    0.0000    0.0000 C   0  0  0  0  0  0  0  0  0  0  0  0
    1.9976   -1.1548    0.0000 C   0  0  0  0  0  0  0  0  0  0  0  0
    2.6588   -2.3049    0.0000 C   0  0  0  0  0  0  0  0  0  0  0  0
    1.9976   -3.4597    0.0000 N   0  0  0  0  0  0  0  0  0  0  0  0
    2.6588   -4.6098    0.0000 C   0  0  0  0  0  0  0  0  0  0  0  0
    3.9905   -4.6098    0.0000 C   0  0  0  0  0  0  0  0  0  0  0  0
    4.6563   -3.4597    0.0000 C   0  0  0  0  0  0  0  0  0  0  0  0
    0.6659   -3.4597    0.0000 N   0  0  0  0  0  0  0  0  0  0  0  0
    0.0000   -2.3049    0.0000 O   0  0  0  0  0  0  0  0  0  0  0  0
  1  2  2  0  0  0  0
  2  3  1  0  0  0  0
  3  4  1  0  0  0  0
  4  5  1  0  0  0  0
  4  8  1  0  0  0  0
  5  6  1  0  0  0  0
  6  7  2  0  0  0  0
  8  9  2  0  0  0  0
M  END
>  <ActivityOutcome_CPDBAS_Rat>
active

>  <cdk:Formula>
[]

>  <TD50_Rat_mmol>
0.269

>  <net.bioclipse.cdk.fingerprint>
QBAAAAAAAAIAAAAAAIAAAAAAAAAAAAAAAAIAAAAABAMAAGAAAAAAAAAAAAAAAAAgAAEAAAAQAAAAAACAAAAAAAAAAAAAAAAAAAAAAAAAgAAAAAAAAAAAAAAIAAAAAAAAAAQgAAEAAAAAAAAABAAAAAAIAAAAAAAAAAAAAAMAAA==

$$$$

 OpenBabel04131118512D

 16 17  0  0  0  0  0  0  0  0999 V2000
    8.3241   -0.4661    0.0000 N   0  0  0  0  0  0  0  0  0  0  0  0
    7.6582   -1.6149    0.0000 C   0  0  0  0  0  0  0  0  0  0  0  0
    8.3241   -2.7636    0.0000 N   0  0  0  0  0  0  0  0  0  0  0  0
    7.6582   -3.9207    0.0000 C   0  0  0  0  0  0  0  0  0  0  0  0
    6.3263   -3.9207    0.0000 N   0  0  0  0  0  0  0  0  0  0  0  0
    5.6687   -2.7636    0.0000 C   0  0  0  0  0  0  0  0  0  0  0  0
    6.3263   -1.6149    0.0000 N   0  0  0  0  0  0  0  0  0  0  0  0
    4.3369   -2.7636    0.0000 C   0  0  0  0  0  0  0  0  0  0  0  0
    3.5544   -3.8457    0.0000 C   0  0  0  0  0  0  0  0  0  0  0  0
    2.2891   -3.4295    0.0000 C   0  0  0  0  0  0  0  0  0  0  0  0
    2.2891   -2.1060    0.0000 C   0  0  0  0  0  0  0  0  0  0  0  0
    3.5544   -1.6898    0.0000 O   0  0  0  0  0  0  0  0  0  0  0  0
    1.2153   -1.3235    0.0000 N   0  3  0  0  0  0  0  0  0  0  0  0
    1.3568    0.0000    0.0000 O   0  5  0  0  0  0  0  0  0  0  0  0
    0.0000   -1.8646    0.0000 O   0  0  0  0  0  0  0  0  0  0  0  0
    8.3241   -5.0694    0.0000 N   0  0  0  0  0  0  0  0  0  0  0  0
  1  2  1  0  0  0  0
  2  3  2  0  0  0  0
  2  7  1  0  0  0  0
  3  4  1  0  0  0  0
  4  5  2  0  0  0  0
  4 16  1  0  0  0  0
  5  6  1  0  0  0  0
  6  7  2  0  0  0  0
  6  8  1  0  0  0  0
  8  9  2  0  0  0  0
  8 12  1  0  0  0  0
  9 10  1  0  0  0  0
 10 11  2  0  0  0  0
 11 12  1  0  0  0  0
 11 13  1  0  0  0  0
 13 14  1  0  0  0  0
 13 15  2  0  0  0  0
M  CHG  2  13   1  14  -1
M  END
>  <ActivityOutcome_CPDBAS_Rat>
active

>  <cdk:Formula>
[]

>  <TD50_Rat_mmol>
0.0077

>  <net.bioclipse.cdk.fingerprint>
IAACOIJDpSBAEAgAkJAAAEogoACAEMEQAIBBAAQABgAAgGAABQIBAJCAAAAhAAAgAAADEkAAAkAAAAAABIBAAAAAARQEgAAAUAAAQAyIABIAAgAYFQQI5IAAgCAAgAQgAFQAVCAlNCgAIgBQlIoACACAAgOBGAAAEAAICgIAIw==

$$$$

 OpenBabel04131118512D

  9  9  0  0  0  0  0  0  0  0999 V2000
    0.0000   -2.6589    0.0000 N   0  0  0  0  0  0  0  0  0  0  0  0
    1.1520   -1.9953    0.0000 C   0  0  0  0  0  0  0  0  0  0  0  0
    1.1520   -0.6636    0.0000 C   0  0  0  0  0  0  0  0  0  0  0  0
    2.3041    0.0000    0.0000 C   0  0  0  0  0  0  0  0  0  0  0  0
    3.4561   -0.6636    0.0000 C   0  0  0  0  0  0  0  0  0  0  0  0
    3.4561   -1.9953    0.0000 C   0  0  0  0  0  0  0  0  0  0  0  0
    2.3041   -2.6589    0.0000 C   0  0  0  0  0  0  0  0  0  0  0  0
    4.6082   -2.6589    0.0000 N   0  0  0  0  0  0  0  0  0  0  0  0
    0.0000    0.0000    0.0000 C   0  0  0  0  0  0  0  0  0  0  0  0
  1  2  1  0  0  0  0
  2  3  2  0  0  0  0
  2  7  1  0  0  0  0
  3  4  1  0  0  0  0
  3  9  1  0  0  0  0
  4  5  2  0  0  0  0
  5  6  1  0  0  0  0
  6  7  2  0  0  0  0
  6  8  1  0  0  0  0
M  END
>  <ActivityOutcome_CPDBAS_Rat>
active

>  <cdk:Formula>
[]

>  <TD50_Rat_mmol>
0.0202

>  <net.bioclipse.cdk.fingerprint>
IgAAAAAAAAQAAAAAAAAAQQAAAAAABAACAAAAYAAAAAAAAAAAAAAAAGAAAAAAAAAAQAAAAAAAAAAABAAAAAAAAAAAAAAAAAAAAAAAAAAAAAAAgAAAAACAACAAAABAIAAAAAAAAkAAAAAAAAAAgAAAEAAAAAAAAhAA

$$$$

 OpenBabel04131118512D

 14 16  0  0  0  0  0  0  0  0999 V2000
    7.6035   -3.0490    0.0000 N   0  0  0  0  0  0  0  0  0  0  0  0
    6.3869   -2.5091    0.0000 C   0  0  0  0  0  0  0  0  0  0  0  0
    6.2500   -1.1861    0.0000 C   0  0  0  0  0  0  0  0  0  0  0  0
    5.0335   -0.6463    0.0000 C   0  0  0  0  0  0  0  0  0  0  0  0
    3.9614   -1.4294    0.0000 C   0  0  0  0  0  0  0  0  0  0  0  0
    2.6612   -1.1557    0.0000 C   0  0  0  0  0  0  0  0  0  0  0  0
    1.9921   -2.3038    0.0000 C   0  0  0  0  0  0  0  0  0  0  0  0
    0.6615   -2.3038    0.0000 C   0  0  0  0  0  0  0  0  0  0  0  0
    0.0000   -1.1557    0.0000 C   0  0  0  0  0  0  0  0  0  0  0  0
    0.6615    0.0000    0.0000 C   0  0  0  0  0  0  0  0  0  0  0  0
    1.9921    0.0000    0.0000 C   0  0  0  0  0  0  0  0  0  0  0  0
    2.8817   -3.2923    0.0000 O   0  0  0  0  0  0  0  0  0  0  0  0
    4.0983   -2.7525    0.0000 C   0  0  0  0  0  0  0  0  0  0  0  0
    5.3148   -3.2923    0.0000 C   0  0  0  0  0  0  0  0  0  0  0  0
  1  2  1  0  0  0  0
  2  3  2  0  0  0  0
  2 14  1  0  0  0  0
  3  4  1  0  0  0  0
  4  5  2  0  0  0  0
  5  6  1  0  0  0  0
  5 13  1  0  0  0  0
  6  7  2  0  0  0  0
  6 11  1  0  0  0  0
  7  8  1  0  0  0  0
  7 12  1  0  0  0  0
  8  9  2  0  0  0  0
  9 10  1  0  0  0  0
 10 11  2  0  0  0  0
 12 13  1  0  0  0  0
 13 14  2  0  0  0  0
M  END
>  <ActivityOutcome_CPDBAS_Rat>
active

>  <cdk:Formula>
[]

>  <TD50_Rat_mmol>
0.0135

>  <net.bioclipse.cdk.fingerprint>
QQQAIAAgIAAAACAAgAEIAqAAAAAAQAQAAACABAACAAAAYAACAAAAAAAAAQIBAAAASAAAAAAAQAAAAACAAAEAAAAAAAKAAAAAAAAAAAAAAAACAAAABAEAQAAAAAAAACAAQACQIAgAAAACAgAAAgAAAAAAgAAAAEAAAABAAhQB

$$$$

 OpenBabel04131118512D

  6  5  0  0  0  0  0  0  0  0999 V2000
    2.6616    0.0000    0.0000 Br  0  0  0  0  0  0  0  0  0  0  0  0
    1.9952   -1.1492    0.0000 C   0  0  0  0  0  0  0  0  0  0  0  0
    2.6616   -2.3025    0.0000 C   0  0  0  0  0  0  0  0  0  0  0  0
    3.9905   -2.3025    0.0000 Cl  0  0  0  0  0  0  0  0  0  0  0  0
    0.6664   -1.1492    0.0000 C   0  0  0  0  0  0  0  0  0  0  0  0
    0.0000   -2.3025    0.0000 Br  0  0  0  0  0  0  0  0  0  0  0  0
  1  2  1  0  0  0  0
  2  3  1  0  0  0  0
  2  5  1  0  0  0  0
  3  4  1  0  0  0  0
  5  6  1  0  0  0  0
M  END
>  <ActivityOutcome_CPDBAS_Rat>
active

>  <cdk:Formula>
[]

>  <TD50_Rat_mmol>
0.0011

>  <net.bioclipse.cdk.fingerprint>
AIAAAgAAAAAAAACAAAAAwAAAAAAAAAAAAAAAACAAAAACAAAAAAAAAEAAAAEAAAAAAACAAAAAAAABAAAAAAAAAAAAAAAAAAAAAAAAAAAAAQAAAAAAAAAAAAAAAAAAAAAAAAAAAAAAAAAAAAAA

$$$$

 OpenBabel04131118512D

 12 11  0  0  0  0  0  0  0  0999 V2000
    1.3263   -2.2908    0.0000 C   0  0  2  0  0  0  0  0  0  0  0  0
    2.0015   -3.4242    0.0000 C   0  0  2  0  0  0  0  0  0  0  0  0
    1.3263   -4.6138    0.0000 C   0  0  2  0  0  0  0  0  0  0  0  0
    2.0015   -5.7472    0.0000 C   0  0  1  0  0  0  0  0  0  0  0  0
    1.3263   -6.9047    0.0000 C   0  0  0  0  0  0  0  0  0  0  0  0
    2.0015   -1.1334    0.0000 C   0  0  0  0  0  0  0  0  0  0  0  0
    3.3277   -3.4242    0.0000 O   0  0  0  0  0  0  0  0  0  0  0  0
    0.0000   -4.6138    0.0000 O   0  0  0  0  0  0  0  0  0  0  0  0
    3.3277   -5.7472    0.0000 O   0  0  0  0  0  0  0  0  0  0  0  0
    2.0015   -8.0380    0.0000 Br  0  0  0  0  0  0  0  0  0  0  0  0
    1.3263    0.0000    0.0000 Br  0  0  0  0  0  0  0  0  0  0  0  0
    0.0000   -2.2908    0.0000 O   0  0  0  0  0  0  0  0  0  0  0  0
  1  2  1  0  0  0  0
  1  6  1  0  0  0  0
  1 12  1  1  0  0  0
  2  3  1  0  0  0  0
  2  7  1  1  0  0  0
  3  4  1  0  0  0  0
  3  8  1  6  0  0  0
  4  5  1  0  0  0  0
  4  9  1  6  0  0  0
  5 10  1  0  0  0  0
  6 11  1  0  0  0  0
M  END
>  <ActivityOutcome_CPDBAS_Rat>
active

>  <cdk:Formula>
[]

>  <TD50_Rat_mmol>
0.0272

>  <net.bioclipse.cdk.fingerprint>
AgAAAAAAAAAAACAAAkAAAAAAAACAAAEA4AAAAAAAAAAAAAAAGCAAIgAAAAAAAAAAAEAAAAAAAAAAAAAAAAAAAAABAAAAAAUAAAAAAAAAgBAAAAAAAAEQMAAAAAAAAAAAAAAQAAAAAAAAAAAwAAAAAAAAAAAA

$$$$

 OpenBabel04131118512D

  4  3  0  0  0  0  0  0  0  0999 V2000
    0.0000    0.0000    0.0000 Br  0  0  0  0  0  0  0  0  0  0  0  0
    1.1513   -0.6638    0.0000 C   0  0  0  0  0  0  0  0  0  0  0  0
    2.3061    0.0000    0.0000 C   0  0  0  0  0  0  0  0  0  0  0  0
    3.4575   -0.6638    0.0000 Br  0  0  0  0  0  0  0  0  0  0  0  0
  1  2  1  0  0  0  0
  2  3  1  0  0  0  0
  3  4  1  0  0  0  0
M  END
>  <ActivityOutcome_CPDBAS_Rat>
active

>  <cdk:Formula>
[]

>  <TD50_Rat_mmol>
0.00809

>  <net.bioclipse.cdk.fingerprint>
AIAAAAAAAAAAAACAAAAAwAAAAAAAAAAAAAAAACAAAAAAAAAAAAAAAAAAAAAAAAAAAAAAAAAAAAABAAAAAAAAAAAAAAAAAAAAAAAAAAAAAAAAAAAAAAAAAAAAAAAAAAAAAAAAAAAAAAAAAAAA

$$$$

 OpenBabel04131118512D

 12 11  0  0  0  0  0  0  0  0999 V2000
    3.9893   -2.3026    0.0000 O   0  0  0  0  0  0  0  0  0  0  0  0
    2.6595   -2.3026    0.0000 C   0  0  1  0  0  0  0  0  0  0  0  0
    1.9918   -3.4539    0.0000 C   0  0  1  0  0  0  0  0  0  0  0  0
    2.6595   -4.6053    0.0000 C   0  0  2  0  0  0  0  0  0  0  0  0
    3.9893   -4.6053    0.0000 C   0  0  0  0  0  0  0  0  0  0  0  0
    4.6513   -3.4539    0.0000 Br  0  0  0  0  0  0  0  0  0  0  0  0
    1.9918   -5.7566    0.0000 O   0  0  0  0  0  0  0  0  0  0  0  0
    0.6620   -3.4539    0.0000 O   0  0  0  0  0  0  0  0  0  0  0  0
    1.9918   -1.1513    0.0000 C   0  0  2  0  0  0  0  0  0  0  0  0
    0.6620   -1.1513    0.0000 C   0  0  0  0  0  0  0  0  0  0  0  0
    0.0000   -2.3026    0.0000 Br  0  0  0  0  0  0  0  0  0  0  0  0
    2.6595    0.0000    0.0000 O   0  0  0  0  0  0  0  0  0  0  0  0
  2  1  1  1  0  0  0
  2  3  1  0  0  0  0
  2  9  1  0  0  0  0
  3  4  1  0  0  0  0
  3  8  1  1  0  0  0
  4  5  1  0  0  0  0
  4  7  1  6  0  0  0
  5  6  1  0  0  0  0
  9 10  1  0  0  0  0
  9 12  1  6  0  0  0
 10 11  1  0  0  0  0
M  END
>  <ActivityOutcome_CPDBAS_Rat>
active

>  <cdk:Formula>
[]

>  <TD50_Rat_mmol>
0.0896

>  <net.bioclipse.cdk.fingerprint>
AgAAAAAAAAAAACAAAkAAAAAAAACAAAEA4AAAAAAAAAAAAAAAGCAAIgAAAAAAAAAAAEAAAAAAAAAAAAAAAAAAAAABAAAAAAUAAAAAAAAAgBAAAAAAAAEQMAAAAAAAAAAAAAAQAAAAAAAAAAAwAAAAAAAAAAAA

$$$$

 OpenBabel04131118512D

 14 13  0  0  0  0  0  0  0  0999 V2000
    3.9904   -3.4520    0.0000 O   0  0  0  0  0  0  0  0  0  0  0  0
    2.6563   -3.4520    0.0000 C   0  0  0  0  0  0  0  0  0  0  0  0
    1.9922   -4.6066    0.0000 N   0  0  0  0  0  0  0  0  0  0  0  0
    2.6563   -5.7553    0.0000 C   0  0  0  0  0  0  0  0  0  0  0  0
    3.9904   -5.7553    0.0000 C   0  0  0  0  0  0  0  0  0  0  0  0
    4.6545   -4.6066    0.0000 C   0  0  0  0  0  0  0  0  0  0  0  0
    5.9826   -4.6066    0.0000 C   0  0  0  0  0  0  0  0  0  0  0  0
    0.6641   -4.6066    0.0000 N   0  0  0  0  0  0  0  0  0  0  0  0
    0.0000   -3.4520    0.0000 O   0  0  0  0  0  0  0  0  0  0  0  0
    1.9922   -2.3033    0.0000 N   0  0  0  0  0  0  0  0  0  0  0  0
    2.6563   -1.1487    0.0000 C   0  0  0  0  0  0  0  0  0  0  0  0
    3.9904   -1.1487    0.0000 C   0  0  0  0  0  0  0  0  0  0  0  0
    4.6545    0.0000    0.0000 C   0  0  0  0  0  0  0  0  0  0  0  0
    5.9826    0.0000    0.0000 C   0  0  0  0  0  0  0  0  0  0  0  0
  1  2  2  0  0  0  0
  2  3  1  0  0  0  0
  2 10  1  0  0  0  0
  3  4  1  0  0  0  0
  3  8  1  0  0  0  0
  4  5  1  0  0  0  0
  5  6  1  0  0  0  0
  6  7  1  0  0  0  0
  8  9  2  0  0  0  0
 10 11  1  0  0  0  0
 11 12  1  0  0  0  0
 12 13  1  0  0  0  0
 13 14  1  0  0  0  0
M  END
>  <ActivityOutcome_CPDBAS_Rat>
active

>  <cdk:Formula>
[]

>  <TD50_Rat_mmol>
0.0213

>  <net.bioclipse.cdk.fingerprint>
CAAAAAIQAEgAAYAAAQAAAAAQAAAAAAAAAAAABAUAIGAAAAKAgAAAAAAAgRAiAEEAAgAAAAAAAADAAAACgAAAAAEAAEEAAAAAAAAAgAAAQAAgAEAAAAAAACAAAAAAAGRgAAAACAAAAAAAEAAAIABAAABAAAAAABAACAMAAA==

$$$$

 OpenBabel04131118512D

  5  4  0  0  0  0  0  0  0  0999 V2000
    0.0000   -1.3300    0.0000 F   0  0  0  0  0  0  0  0  0  0  0  0
    1.3300   -2.6600    0.0000 Cl  0  0  0  0  0  0  0  0  0  0  0  0
    1.3300   -1.3300    0.0000 C   0  0  0  0  0  0  0  0  0  0  0  0
    2.6600   -1.3300    0.0000 C   0  0  0  0  0  0  0  0  0  0  0  0
    1.3300    0.0000    0.0000 Cl  0  0  0  0  0  0  0  0  0  0  0  0
  1  3  1  0  0  0  0
  2  3  1  0  0  0  0
  3  4  1  0  0  0  0
  3  5  1  0  0  0  0
M  END
>  <ActivityOutcome_CPDBAS_Rat>
active

>  <cdk:Formula>
[]

>  <TD50_Rat_mmol>
45

>  <net.bioclipse.cdk.fingerprint>
IAAAwAAAAAAgAAAAAAAAACAAAAAGAAAAAAAAAAAAAAEAAAAAAAAAAAAAAAAAAAAAAAAAAAAAAAAAAAAAAAAAAAAAAAAAAAAAAAAAAAAAAAAAAAAAAAAAAAAAAAAAAAAA

$$$$

 OpenBabel04131118512D

  6  5  0  0  0  0  0  0  0  0999 V2000
    3.3250   -1.1509    0.0000 O   0  0  0  0  0  0  0  0  0  0  0  0
    1.9943   -1.1509    0.0000 C   0  0  0  0  0  0  0  0  0  0  0  0
    1.3307    0.0000    0.0000 O   0  0  0  0  0  0  0  0  0  0  0  0
    1.3307   -2.3053    0.0000 C   0  0  0  0  0  0  0  0  0  0  0  0
    1.9943   -3.4563    0.0000 Cl  0  0  0  0  0  0  0  0  0  0  0  0
    0.0000   -2.3053    0.0000 Cl  0  0  0  0  0  0  0  0  0  0  0  0
  1  2  1  0  0  0  0
  2  3  2  0  0  0  0
  2  4  1  0  0  0  0
  4  5  1  0  0  0  0
  4  6  1  0  0  0  0
M  END
>  <ActivityOutcome_CPDBAS_Rat>
active

>  <cdk:Formula>
[]

>  <TD50_Rat_mmol>
1.25

>  <net.bioclipse.cdk.fingerprint>
AgAAAAAAAAAAAAAAAAAAAAACAAAAAAAA4AAAAAAAAAAAAAAAACAAAAAGAAAAAAAAAAAAAAEAAAAIAAAAAAAAAAAAAAAAAAAAAAAAAAAAABAAAAAAAAAAQAAAAAAAAAAAAAAAAAAAAAAAAFAAAAAAAAAAAAAA

$$$$

 OpenBabel04131118512D

  4  3  0  0  0  0  0  0  0  0999 V2000
    3.9900    0.0000    0.0000 Cl  0  0  0  0  0  0  0  0  0  0  0  0
    2.6613    0.0000    0.0000 C   0  0  0  0  0  0  0  0  0  0  0  0
    1.3287    0.0000    0.0000 C   0  0  0  0  0  0  0  0  0  0  0  0
    0.0000    0.0000    0.0000 Cl  0  0  0  0  0  0  0  0  0  0  0  0
  1  2  1  0  0  0  0
  2  3  3  0  0  0  0
  3  4  1  0  0  0  0
M  END
>  <ActivityOutcome_CPDBAS_Rat>
active

>  <cdk:Formula>
[]

>  <TD50_Rat_mmol>
0.0377

>  <net.bioclipse.cdk.fingerprint>
AMAAAAAAAAAAEAAAAAAAAAEAAAAAAAAAAAAAAAABAAAAAAAAAAAAAAAAAAAAAAAAAAAAAAAAAAAAAAAAAAAAAAAAAAAAAAAAAAAQAAAAAAAAAAAAAAAAAAAAAAAAAA==

$$$$

 OpenBabel04131118512D

  8  8  0  0  0  0  0  0  0  0999 V2000
    0.0000   -1.1545    0.0000 Cl  0  0  0  0  0  0  0  0  0  0  0  0
    1.3300   -1.1545    0.0000 C   0  0  0  0  0  0  0  0  0  0  0  0
    1.9950    0.0000    0.0000 C   0  0  0  0  0  0  0  0  0  0  0  0
    3.3250    0.0000    0.0000 C   0  0  0  0  0  0  0  0  0  0  0  0
    3.9900   -1.1545    0.0000 C   0  0  0  0  0  0  0  0  0  0  0  0
    3.3250   -2.3036    0.0000 C   0  0  0  0  0  0  0  0  0  0  0  0
    1.9950   -2.3036    0.0000 C   0  0  0  0  0  0  0  0  0  0  0  0
    5.3201   -1.1545    0.0000 Cl  0  0  0  0  0  0  0  0  0  0  0  0
  1  2  1  0  0  0  0
  2  3  2  0  0  0  0
  2  7  1  0  0  0  0
  3  4  1  0  0  0  0
  4  5  2  0  0  0  0
  5  6  1  0  0  0  0
  5  8  1  0  0  0  0
  6  7  2  0  0  0  0
M  END
>  <ActivityOutcome_CPDBAS_Rat>
active

>  <cdk:Formula>
[]

>  <TD50_Rat_mmol>
4.38

>  <net.bioclipse.cdk.fingerprint>
AMAAAAAAAAAAAAAAAAAgAAAAAAAAAEAAAAAAAAABAAAAAAAAAAAAAAAAAAAAAAAAAAAAAAAAAQEAAAAAAAAgAAAAgCAEAAAAAEIAAAAAAAAAAIAAAAAAAAAAAAAAAA==

$$$$

 OpenBabel04131118512D

 16 17  0  0  0  0  0  0  0  0999 V2000
    7.9825    0.0000    0.0000 Cl  0  0  0  0  0  0  0  0  0  0  0  0
    7.3211   -1.1550    0.0000 C   0  0  0  0  0  0  0  0  0  0  0  0
    7.9825   -2.3100    0.0000 C   0  0  0  0  0  0  0  0  0  0  0  0
    7.3211   -3.4557    0.0000 C   0  0  0  0  0  0  0  0  0  0  0  0
    5.9892   -3.4557    0.0000 C   0  0  0  0  0  0  0  0  0  0  0  0
    5.3185   -2.3100    0.0000 C   0  0  0  0  0  0  0  0  0  0  0  0
    5.9892   -1.1550    0.0000 C   0  0  0  0  0  0  0  0  0  0  0  0
    3.9959   -2.3100    0.0000 C   0  0  0  0  0  0  0  0  0  0  0  0
    3.3253   -3.4557    0.0000 C   0  0  0  0  0  0  0  0  0  0  0  0
    1.9933   -3.4557    0.0000 C   0  0  0  0  0  0  0  0  0  0  0  0
    1.3320   -2.3100    0.0000 C   0  0  0  0  0  0  0  0  0  0  0  0
    1.9933   -1.1550    0.0000 C   0  0  0  0  0  0  0  0  0  0  0  0
    3.3253   -1.1550    0.0000 C   0  0  0  0  0  0  0  0  0  0  0  0
    0.0000   -2.3100    0.0000 N   0  0  0  0  0  0  0  0  0  0  0  0
    1.3320   -4.6106    0.0000 Cl  0  0  0  0  0  0  0  0  0  0  0  0
    9.3144   -2.3100    0.0000 N   0  0  0  0  0  0  0  0  0  0  0  0
  1  2  1  0  0  0  0
  2  3  2  0  0  0  0
  2  7  1  0  0  0  0
  3  4  1  0  0  0  0
  3 16  1  0  0  0  0
  4  5  2  0  0  0  0
  5  6  1  0  0  0  0
  6  7  2  0  0  0  0
  6  8  1  0  0  0  0
  8  9  2  0  0  0  0
  8 13  1  0  0  0  0
  9 10  1  0  0  0  0
 10 11  2  0  0  0  0
 10 15  1  0  0  0  0
 11 12  1  0  0  0  0
 11 14  1  0  0  0  0
 12 13  2  0  0  0  0
M  END
>  <ActivityOutcome_CPDBAS_Rat>
active

>  <cdk:Formula>
[]

>  <TD50_Rat_mmol>
0.111

>  <net.bioclipse.cdk.fingerprint>
AQAAAAEAgAAgBBBAAAAAAAAAAAAAEABBQAAAAAIEAAMAAADgAAAAAAAAAAAAAAAAIEAAAAAABABAAAAEAAAAAQQEAAAQAAAAAAAAAAAAAEAAAgAAAAAAAAWBAAAAAIAAIAAAAMAgBAAAAEACQAEAAAAAAAiAgAAAEAgIAAACEAA=

$$$$

 OpenBabel04131118512D

  4  3  0  0  0  0  0  0  0  0999 V2000
    0.0000    0.0000    0.0000 Cl  0  0  0  0  0  0  0  0  0  0  0  0
    1.1513   -0.6638    0.0000 C   0  0  0  0  0  0  0  0  0  0  0  0
    2.3061    0.0000    0.0000 C   0  0  0  0  0  0  0  0  0  0  0  0
    3.4575   -0.6638    0.0000 Cl  0  0  0  0  0  0  0  0  0  0  0  0
  1  2  1  0  0  0  0
  2  3  1  0  0  0  0
  3  4  1  0  0  0  0
M  END
>  <ActivityOutcome_CPDBAS_Rat>
active

>  <cdk:Formula>
[]

>  <TD50_Rat_mmol>
0.148

>  <net.bioclipse.cdk.fingerprint>
AMAAAAAAAAAAAAAAAAAgAAAAAgAAAAAAAAAAAAABAAAABAAAAAAAAAAAAAAAAAAAAAAAAAAAAAAAAAAAAAAAAAAAAAAAAAAAAAAAAAAAAAAAAAAAAAAAAAAAAAAAAA==

$$$$

 OpenBabel04131118512D

 11 10  0  0  0  0  0  0  0  0999 V2000
    3.3245   -1.9911    0.0000 O   0  0  0  0  0  0  0  0  0  0  0  0
    1.9911   -1.9911    0.0000 P   0  0  0  0  0  0  0  0  0  0  0  0
    1.9911   -3.3245    0.0000 O   0  0  0  0  0  0  0  0  0  0  0  0
    3.1451   -3.9882    0.0000 C   0  0  0  0  0  0  0  0  0  0  0  0
    3.1451   -5.3156    0.0000 C   0  0  0  0  0  0  0  0  0  0  0  0
    4.2931   -5.9793    0.0000 Cl  0  0  0  0  0  0  0  0  0  0  0  0
    1.9911   -5.9793    0.0000 Cl  0  0  0  0  0  0  0  0  0  0  0  0
    0.6637   -1.9911    0.0000 O   0  0  0  0  0  0  0  0  0  0  0  0
    0.0000   -3.1451    0.0000 C   0  0  0  0  0  0  0  0  0  0  0  0
    1.9911   -0.6637    0.0000 O   0  0  0  0  0  0  0  0  0  0  0  0
    3.1451    0.0000    0.0000 C   0  0  0  0  0  0  0  0  0  0  0  0
  1  2  2  0  0  0  0
  2  3  1  0  0  0  0
  2  8  1  0  0  0  0
  2 10  1  0  0  0  0
  3  4  1  0  0  0  0
  4  5  2  0  0  0  0
  5  6  1  0  0  0  0
  5  7  1  0  0  0  0
  8  9  1  0  0  0  0
 10 11  1  0  0  0  0
M  END
>  <ActivityOutcome_CPDBAS_Rat>
active

>  <cdk:Formula>
[]

>  <TD50_Rat_mmol>
0.0188

>  <net.bioclipse.cdk.fingerprint>
AgAAAAAAAAAAAAAACAAAAAAAAAAAAAAB4AAAAAgAAAAAAAQAAAAQAAAEABAAACBCAAAAAAkABQAAAAgAAAAAAAAAAAAAABAAAQAAAAAABAABAAAAAAAAAAAAAAAIAgAAAAAEAAAAAAAAAAAAAAAAAAAAAIAA

$$$$

 OpenBabel04131118512D

 20 21  0  0  0  0  0  0  0  0999 V2000
    5.3145   -3.4592    0.0000 N   0  0  0  0  0  0  0  0  0  0  0  0
    5.9848   -2.3101    0.0000 N   0  0  0  0  0  0  0  0  0  0  0  0
    7.3134   -2.3101    0.0000 C   0  0  0  0  0  0  0  0  0  0  0  0
    7.9837   -1.1491    0.0000 C   0  0  0  0  0  0  0  0  0  0  0  0
    9.3124   -1.1491    0.0000 C   0  0  0  0  0  0  0  0  0  0  0  0
    9.9707   -2.3101    0.0000 C   0  0  0  0  0  0  0  0  0  0  0  0
    9.3124   -3.4592    0.0000 C   0  0  0  0  0  0  0  0  0  0  0  0
    7.9837   -3.4592    0.0000 C   0  0  0  0  0  0  0  0  0  0  0  0
   11.2993   -2.3101    0.0000 N   0  0  0  0  0  0  0  0  0  0  0  0
   11.9696   -3.4592    0.0000 C   0  0  0  0  0  0  0  0  0  0  0  0
   11.9696   -1.1491    0.0000 C   0  0  0  0  0  0  0  0  0  0  0  0
    3.9859   -3.4592    0.0000 C   0  0  0  0  0  0  0  0  0  0  0  0
    3.3275   -4.6083    0.0000 C   0  0  0  0  0  0  0  0  0  0  0  0
    1.9989   -4.6083    0.0000 C   0  0  0  0  0  0  0  0  0  0  0  0
    1.3286   -3.4592    0.0000 N   0  3  0  0  0  0  0  0  0  0  0  0
    1.9989   -2.3101    0.0000 C   0  0  0  0  0  0  0  0  0  0  0  0
    3.3275   -2.3101    0.0000 C   0  0  0  0  0  0  0  0  0  0  0  0
    0.0000   -3.4592    0.0000 O   0  5  0  0  0  0  0  0  0  0  0  0
   11.2993   -4.6083    0.0000 C   0  0  0  0  0  0  0  0  0  0  0  0
   11.2993    0.0000    0.0000 C   0  0  0  0  0  0  0  0  0  0  0  0
  1  2  2  0  0  0  0
  1 12  1  0  0  0  0
  2  3  1  0  0  0  0
  3  4  2  0  0  0  0
  3  8  1  0  0  0  0
  4  5  1  0  0  0  0
  5  6  2  0  0  0  0
  6  7  1  0  0  0  0
  6  9  1  0  0  0  0
  7  8  2  0  0  0  0
  9 10  1  0  0  0  0
  9 11  1  0  0  0  0
 10 19  1  0  0  0  0
 11 20  1  0  0  0  0
 12 13  2  0  0  0  0
 12 17  1  0  0  0  0
 13 14  1  0  0  0  0
 14 15  2  0  0  0  0
 15 16  1  0  0  0  0
 15 18  1  0  0  0  0
 16 17  2  0  0  0  0
M  CHG  2  15   1  18  -1
M  END
>  <ActivityOutcome_CPDBAS_Rat>
active

>  <cdk:Formula>
[]

>  <TD50_Rat_mmol>
0.00603

>  <net.bioclipse.cdk.fingerprint>
EAIAkUIAIgAIDAAAQAUCAABAAQAAQBEIQAgABEgSgAAAaBAAQAAAAAAAAEIAiCAABAAAAAMAQgQACIAEIBBBAgAHAAAAACAAAAEAgACQAIAAAAAAAAAAICAAAAAAgCAAAAIAIAAAIAAABgAAAAgARABAgAACAACAEAAAAxCA

$$$$

 OpenBabel04131118512D

  8  7  0  0  0  0  0  0  0  0999 V2000
    3.9901   -1.1531    0.0000 C   0  0  0  0  0  0  0  0  0  0  0  0
    2.6614   -1.1531    0.0000 C   0  0  0  0  0  0  0  0  0  0  0  0
    1.9951    0.0000    0.0000 O   0  0  0  0  0  0  0  0  0  0  0  0
    1.9951   -2.3023    0.0000 N   0  0  0  0  0  0  0  0  0  0  0  0
    2.6614   -3.4554    0.0000 C   0  0  0  0  0  0  0  0  0  0  0  0
    3.9901   -3.4554    0.0000 C   0  0  0  0  0  0  0  0  0  0  0  0
    0.6664   -2.3023    0.0000 C   0  0  0  0  0  0  0  0  0  0  0  0
    0.0000   -3.4554    0.0000 C   0  0  0  0  0  0  0  0  0  0  0  0
  1  2  1  0  0  0  0
  2  3  2  0  0  0  0
  2  4  1  0  0  0  0
  4  5  1  0  0  0  0
  4  7  1  0  0  0  0
  5  6  1  0  0  0  0
  7  8  1  0  0  0  0
M  END
>  <ActivityOutcome_CPDBAS_Rat>
active

>  <cdk:Formula>
[]

>  <TD50_Rat_mmol>
0.0768

>  <net.bioclipse.cdk.fingerprint>
EAAAAAAAAgAAAAAAAAAAAAAAAAAAAAAAAAAAAAAAAAAAYAAAAAAAAAAAAAABACAAAAAAAAAAAAAAAIAAAACAAAAAAAAAAAAAAAAAAACAAAAAAAAAAAAAAAAAAAAAAAAAQAAAAAAAAAAAAAAAAAAAAAAAAFAAAAAAAAAAAgAA

$$$$

 OpenBabel04131118512D

  7  6  0  0  0  0  0  0  0  0999 V2000
    0.0000   -0.6638    0.0000 O   0  0  0  0  0  0  0  0  0  0  0  0
    1.1548    0.0000    0.0000 C   0  0  0  0  0  0  0  0  0  0  0  0
    2.3027   -0.6638    0.0000 C   0  0  0  0  0  0  0  0  0  0  0  0
    3.4575    0.0000    0.0000 O   0  0  0  0  0  0  0  0  0  0  0  0
    4.6122   -0.6638    0.0000 C   0  0  0  0  0  0  0  0  0  0  0  0
    5.7601    0.0000    0.0000 C   0  0  0  0  0  0  0  0  0  0  0  0
    6.9149   -0.6638    0.0000 O   0  0  0  0  0  0  0  0  0  0  0  0
  1  2  1  0  0  0  0
  2  3  1  0  0  0  0
  3  4  1  0  0  0  0
  4  5  1  0  0  0  0
  5  6  1  0  0  0  0
  6  7  1  0  0  0  0
M  END
>  <ActivityOutcome_CPDBAS_Rat>
active

>  <cdk:Formula>
[]

>  <TD50_Rat_mmol>
15.6

>  <net.bioclipse.cdk.fingerprint>
AgAAAAAAAAAAAAAAEIAAAAAAAAAAAAAAYACAAAAAAAAAAAAACCACAAAAAAAAAAAAAAAAAAAAAAAAAAAAAAAAAAAAAAAAAAAAAAAgAAAAABAAAABAAAAAAAAAAAAAAAAAAAAAAAAAAAAAAAAAAAAAAAAAAAAA

$$$$

 OpenBabel04131118512D

 20 21  0  0  0  0  0  0  0  0999 V2000
    6.0553   -3.7463    0.0000 C   0  0  0  0  0  0  0  0  0  0  0  0
    5.3988   -2.6032    0.0000 C   0  0  0  0  0  0  0  0  0  0  0  0
    3.8482   -2.5919    0.0000 C   0  0  0  0  0  0  0  0  0  0  0  0
    3.1691   -3.7237    0.0000 C   0  0  0  0  0  0  0  0  0  0  0  0
    1.9807   -3.7011    0.0000 C   0  0  0  0  0  0  0  0  0  0  0  0
    1.3129   -2.5692    0.0000 C   0  0  0  0  0  0  0  0  0  0  0  0
    1.9581   -1.4261    0.0000 C   0  0  0  0  0  0  0  0  0  0  0  0
    3.2031   -1.4374    0.0000 C   0  0  0  0  0  0  0  0  0  0  0  0
    0.0000   -2.5806    0.0000 O   0  0  0  0  0  0  0  0  0  0  0  0
    5.9874   -1.1431    0.0000 C   0  0  0  0  0  0  0  0  0  0  0  0
    5.3309    0.0000    0.0000 C   0  0  0  0  0  0  0  0  0  0  0  0
    7.3682   -3.7463    0.0000 C   0  0  0  0  0  0  0  0  0  0  0  0
    8.0360   -2.6032    0.0000 C   0  0  0  0  0  0  0  0  0  0  0  0
    9.3489   -2.6145    0.0000 C   0  0  0  0  0  0  0  0  0  0  0  0
   10.0053   -3.7463    0.0000 C   0  0  0  0  0  0  0  0  0  0  0  0
    9.3376   -4.8895    0.0000 C   0  0  0  0  0  0  0  0  0  0  0  0
    8.0246   -4.8895    0.0000 C   0  0  0  0  0  0  0  0  0  0  0  0
   11.3183   -3.7577    0.0000 O   0  0  0  0  0  0  0  0  0  0  0  0
    5.3988   -4.8782    0.0000 C   0  0  0  0  0  0  0  0  0  0  0  0
    6.0553   -6.0213    0.0000 C   0  0  0  0  0  0  0  0  0  0  0  0
  1  2  2  0  0  0  0
  1 12  1  0  0  0  0
  1 19  1  0  0  0  0
  2  3  1  0  0  0  0
  2 10  1  0  0  0  0
  3  4  1  0  0  0  0
  3  8  2  0  0  0  0
  4  5  2  0  0  0  0
  5  6  1  0  0  0  0
  6  7  2  0  0  0  0
  6  9  1  0  0  0  0
  7  8  1  0  0  0  0
 10 11  1  0  0  0  0
 12 13  2  0  0  0  0
 12 17  1  0  0  0  0
 13 14  1  0  0  0  0
 14 15  2  0  0  0  0
 15 16  1  0  0  0  0
 15 18  1  0  0  0  0
 16 17  2  0  0  0  0
 19 20  1  0  0  0  0
M  END
>  <ActivityOutcome_CPDBAS_Rat>
active

>  <cdk:Formula>
[]

>  <TD50_Rat_mmol>
0.000831

>  <net.bioclipse.cdk.fingerprint>
QAAAEAAAAAAAABIAAAAAAAgAAIAEAAAAAAAAAAgAAAgAAmEAQAAAQAAAAAAgABAgAAAgAAAQAEAAAADAAAAAAAQIAAQAEBAEAAAAAgAAgAAQAABQAAgAAIAAAAACgAAggAIIQCAoAAAAFAJAEAwAAAAcAIABCAQAAAQgAAAAAA==

$$$$

 OpenBabel04131118512D

  8  7  0  0  0  0  0  0  0  0999 V2000
    3.4577    0.0000    0.0000 S   0  0  0  0  0  0  0  0  0  0  0  0
    3.4577   -1.3312    0.0000 C   0  0  0  0  0  0  0  0  0  0  0  0
    4.6103   -1.9939    0.0000 N   0  0  0  0  0  0  0  0  0  0  0  0
    5.7628   -1.3312    0.0000 C   0  0  0  0  0  0  0  0  0  0  0  0
    5.7628    0.0000    0.0000 C   0  0  0  0  0  0  0  0  0  0  0  0
    2.3051   -1.9939    0.0000 N   0  0  0  0  0  0  0  0  0  0  0  0
    1.1526   -1.3312    0.0000 C   0  0  0  0  0  0  0  0  0  0  0  0
    0.0000   -1.9939    0.0000 C   0  0  0  0  0  0  0  0  0  0  0  0
  1  2  2  0  0  0  0
  2  3  1  0  0  0  0
  2  6  1  0  0  0  0
  3  4  1  0  0  0  0
  4  5  1  0  0  0  0
  6  7  1  0  0  0  0
  7  8  1  0  0  0  0
M  END
>  <ActivityOutcome_CPDBAS_Rat>
active

>  <cdk:Formula>
[]

>  <TD50_Rat_mmol>
0.182

>  <net.bioclipse.cdk.fingerprint>
AhAASAAAAAAAAAAAAAAAAAAAAAAAAAAAAAABYAAAAIAAAAAAAAgAACAAAAABAAAAAAAAAIAAAAAAAAAAAAAAAQAAAAAAAACAAAAAAAAAAAAAEAAAAAAAAAAAAAAAAAAAAAAAAAAAAAAAAEAAAAAAAAAAAQAAAgAA

$$$$

 OpenBabel04131118512D

 16 18  0  0  0  0  0  0  0  0999 V2000
    5.9373   -2.6599    0.0000 C   0  0  0  0  0  0  0  0  0  0  0  0
    4.7855   -1.9949    0.0000 C   0  0  0  0  0  0  0  0  0  0  0  0
    4.7855   -0.6650    0.0000 C   0  0  0  0  0  0  0  0  0  0  0  0
    5.9373    0.0000    0.0000 C   0  0  0  0  0  0  0  0  0  0  0  0
    7.0892   -0.6650    0.0000 C   0  0  0  0  0  0  0  0  0  0  0  0
    7.0892   -1.9949    0.0000 C   0  0  0  0  0  0  0  0  0  0  0  0
    8.2410   -2.6599    0.0000 O   0  0  0  0  0  0  0  0  0  0  0  0
    9.3928   -1.9949    0.0000 C   0  0  0  0  0  0  0  0  0  0  0  0
   10.5447   -2.6599    0.0000 C   0  0  0  0  0  0  0  0  0  0  0  0
   11.8746   -2.6599    0.0000 C   0  0  0  0  0  0  0  0  0  0  0  0
   11.2097   -3.8118    0.0000 O   0  0  0  0  0  0  0  0  0  0  0  0
    3.6336   -2.6599    0.0000 O   0  0  0  0  0  0  0  0  0  0  0  0
    2.4818   -1.9949    0.0000 C   0  0  0  0  0  0  0  0  0  0  0  0
    1.3300   -2.6599    0.0000 C   0  0  0  0  0  0  0  0  0  0  0  0
    0.6650   -3.8118    0.0000 C   0  0  0  0  0  0  0  0  0  0  0  0
    0.0000   -2.6599    0.0000 O   0  0  0  0  0  0  0  0  0  0  0  0
  1  2  2  0  0  0  0
  1  6  1  0  0  0  0
  2  3  1  0  0  0  0
  2 12  1  0  0  0  0
  3  4  2  0  0  0  0
  4  5  1  0  0  0  0
  5  6  2  0  0  0  0
  6  7  1  0  0  0  0
  7  8  1  0  0  0  0
  8  9  1  0  0  0  0
  9 10  1  0  0  0  0
  9 11  1  0  0  0  0
 10 11  1  0  0  0  0
 12 13  1  0  0  0  0
 13 14  1  0  0  0  0
 14 15  1  0  0  0  0
 14 16  1  0  0  0  0
 15 16  1  0  0  0  0
M  END
>  <ActivityOutcome_CPDBAS_Rat>
active

>  <cdk:Formula>
[]

>  <TD50_Rat_mmol>
0.017

>  <net.bioclipse.cdk.fingerprint>
BAAAAAAABAAAAIACABAABAAAAAAAAAAAgAAAAQAAAEACCAJhAAACAAgAAEgAAAAYIAIQIACAAABEAAQIQAAAAAADEAAAgABAARAgBCAAAIAAAAACAAAAQIAAEAAIAEIAIAIAAAAgICAABAACCAAAAAAIAACAACAAAAAAAAAiAAA=

$$$$

 OpenBabel04131118512D

 19 21  0  0  0  0  0  0  0  0999 V2000
    0.6604   -4.6025    0.0000 C   0  0  0  0  0  0  0  0  0  0  0  0
    0.0000   -3.4467    0.0000 C   0  0  0  0  0  0  0  0  0  0  0  0
    0.6604   -2.3012    0.0000 C   0  0  0  0  0  0  0  0  0  0  0  0
    1.9917   -2.3012    0.0000 C   0  0  0  0  0  0  0  0  0  0  0  0
    2.6624   -3.4467    0.0000 C   0  0  0  0  0  0  0  0  0  0  0  0
    1.9917   -4.6025    0.0000 C   0  0  0  0  0  0  0  0  0  0  0  0
    3.9936   -3.4467    0.0000 N   0  0  0  0  0  0  0  0  0  0  0  0
    4.6541   -2.3012    0.0000 C   0  0  0  0  0  0  0  0  0  0  0  0
    3.9936   -1.1455    0.0000 N   0  0  0  0  0  0  0  0  0  0  0  0
    2.6624   -1.1455    0.0000 C   0  0  0  0  0  0  0  0  0  0  0  0
    1.9917    0.0000    0.0000 O   0  0  0  0  0  0  0  0  0  0  0  0
    5.9853   -2.3012    0.0000 C   0  0  0  0  0  0  0  0  0  0  0  0
    6.7696   -1.2177    0.0000 C   0  0  0  0  0  0  0  0  0  0  0  0
    8.0285   -1.6305    0.0000 C   0  0  0  0  0  0  0  0  0  0  0  0
    8.0285   -2.9617    0.0000 C   0  0  0  0  0  0  0  0  0  0  0  0
    6.7696   -3.3745    0.0000 S   0  0  0  0  0  0  0  0  0  0  0  0
    9.1018   -3.7460    0.0000 N   0  3  0  0  0  0  0  0  0  0  0  0
   10.3195   -3.1990    0.0000 O   0  5  0  0  0  0  0  0  0  0  0  0
    8.9676   -5.0669    0.0000 O   0  0  0  0  0  0  0  0  0  0  0  0
  1  2  2  0  0  0  0
  1  6  1  0  0  0  0
  2  3  1  0  0  0  0
  3  4  2  0  0  0  0
  4  5  1  0  0  0  0
  4 10  1  0  0  0  0
  5  6  2  0  0  0  0
  5  7  1  0  0  0  0
  7  8  1  0  0  0  0
  8  9  1  0  0  0  0
  8 12  1  0  0  0  0
  9 10  1  0  0  0  0
 10 11  2  0  0  0  0
 12 13  2  0  0  0  0
 12 16  1  0  0  0  0
 13 14  1  0  0  0  0
 14 15  2  0  0  0  0
 15 16  1  0  0  0  0
 15 17  1  0  0  0  0
 17 18  1  0  0  0  0
 17 19  2  0  0  0  0
M  CHG  2  17   1  18  -1
M  END
>  <ActivityOutcome_CPDBAS_Rat>
active

>  <cdk:Formula>
[]

>  <TD50_Rat_mmol>
0.00556

>  <net.bioclipse.cdk.fingerprint>
ICA0SRzCjADiFIRMAkE4AgAqgEAAAZBZgQAhQYBEQCdSCEFoQQTAlCAEIAWgRAHAYUPURAIiAgVACYAAlAQAZeFOACgABAQFAgkAAgCAgtQABAIEJAAEEhOAAm4IEMUA4AhEIERhAACCACAmQIAAAUAAQmCIUkhxIMCClFJOEAA=

$$$$

 OpenBabel04131118512D

  8  8  0  0  0  0  0  0  0  0999 V2000
    0.6656   -2.3042    0.0000 C   0  0  0  0  0  0  0  0  0  0  0  0
    0.0000   -1.1544    0.0000 C   0  0  0  0  0  0  0  0  0  0  0  0
    0.6656    0.0000    0.0000 C   0  0  0  0  0  0  0  0  0  0  0  0
    1.9969    0.0000    0.0000 C   0  0  0  0  0  0  0  0  0  0  0  0
    2.6579   -1.1544    0.0000 N   0  0  0  0  0  0  0  0  0  0  0  0
    1.9969   -2.3042    0.0000 O   0  0  0  0  0  0  0  0  0  0  0  0
    3.9892   -1.1544    0.0000 N   0  0  0  0  0  0  0  0  0  0  0  0
    4.6549   -2.3042    0.0000 O   0  0  0  0  0  0  0  0  0  0  0  0
  1  2  1  0  0  0  0
  1  6  1  0  0  0  0
  2  3  2  0  0  0  0
  3  4  1  0  0  0  0
  4  5  1  0  0  0  0
  5  6  1  0  0  0  0
  5  7  1  0  0  0  0
  7  8  2  0  0  0  0
M  END
>  <ActivityOutcome_CPDBAS_Rat>
active

>  <cdk:Formula>
[]

>  <TD50_Rat_mmol>
0.794

>  <net.bioclipse.cdk.fingerprint>
QAABAAACACoEAAoAAIBAAAAAAAAAAAAAIAIAAgAABAMAAGQAAAAAAAEAAAAAAAAwBAEABxARAEAAEAAAAAAAAQAAAAAAIAAAAAAAAAAAAAAAEAAAAAAAAAAQAAAAAAAAAAQgBAAICAACAAAABAAAQCAAAAQASAAAAAAAAAMAIA==

$$$$

 OpenBabel04131118512D

 11 12  0  0  0  0  0  0  0  0999 V2000
    0.0000   -2.6606    0.0000 O   0  0  0  0  0  0  0  0  0  0  0  0
    1.1518   -1.9983    0.0000 C   0  0  0  0  0  0  0  0  0  0  0  0
    2.3036   -2.6606    0.0000 O   0  0  0  0  0  0  0  0  0  0  0  0
    3.4554   -1.9983    0.0000 C   0  0  0  0  0  0  0  0  0  0  0  0
    3.4554   -0.6680    0.0000 C   0  0  0  0  0  0  0  0  0  0  0  0
    4.6071    0.0000    0.0000 C   0  0  0  0  0  0  0  0  0  0  0  0
    5.7589   -0.6680    0.0000 C   0  0  0  0  0  0  0  0  0  0  0  0
    5.7589   -1.9983    0.0000 C   0  0  0  0  0  0  0  0  0  0  0  0
    4.6071   -2.6606    0.0000 C   0  0  0  0  0  0  0  0  0  0  0  0
    2.3036    0.0000    0.0000 C   0  0  0  0  0  0  0  0  0  0  0  0
    1.1518   -0.6680    0.0000 C   0  0  0  0  0  0  0  0  0  0  0  0
  1  2  2  0  0  0  0
  2  3  1  0  0  0  0
  2 11  1  0  0  0  0
  3  4  1  0  0  0  0
  4  5  2  0  0  0  0
  4  9  1  0  0  0  0
  5  6  1  0  0  0  0
  5 10  1  0  0  0  0
  6  7  2  0  0  0  0
  7  8  1  0  0  0  0
  8  9  2  0  0  0  0
 10 11  1  0  0  0  0
M  END
>  <ActivityOutcome_CPDBAS_Rat>
active

>  <cdk:Formula>
[]

>  <TD50_Rat_mmol>
20

>  <net.bioclipse.cdk.fingerprint>
AhIAEAAEAAgAAAAAAACgAAAAgAAAQEgIAmEQAAAACAAACEAAABAgAgAgAIAIAEAABChAAAACABYYJAAAAAEMACBEYAAAgAABAEAAAABAAIAQCAIAgAggIEQAQKAgIAAEAAZBEAQBAAAcAIBSEAQDAUAAACAAAA==

$$$$

 OpenBabel04131118512D

 12 13  0  0  0  0  0  0  0  0999 V2000
    7.8079   -2.6625    0.0000 C   0  0  0  0  0  0  0  0  0  0  0  0
    6.6523   -1.9988    0.0000 C   0  0  0  0  0  0  0  0  0  0  0  0
    5.5046   -2.6625    0.0000 C   0  0  0  0  0  0  0  0  0  0  0  0
    4.3490   -1.9988    0.0000 C   0  0  0  0  0  0  0  0  0  0  0  0
    3.2012   -2.6625    0.0000 C   0  0  0  0  0  0  0  0  0  0  0  0
    2.0457   -1.9988    0.0000 C   0  0  0  0  0  0  0  0  0  0  0  0
    2.0457   -0.6637    0.0000 C   0  0  0  0  0  0  0  0  0  0  0  0
    3.2012    0.0000    0.0000 C   0  0  0  0  0  0  0  0  0  0  0  0
    4.3490   -0.6637    0.0000 C   0  0  0  0  0  0  0  0  0  0  0  0
    0.7808   -0.2577    0.0000 O   0  0  0  0  0  0  0  0  0  0  0  0
    0.0000   -1.3351    0.0000 C   0  0  0  0  0  0  0  0  0  0  0  0
    0.7808   -2.4048    0.0000 O   0  0  0  0  0  0  0  0  0  0  0  0
  1  2  1  0  0  0  0
  2  3  1  0  0  0  0
  3  4  1  0  0  0  0
  4  5  2  0  0  0  0
  4  9  1  0  0  0  0
  5  6  1  0  0  0  0
  6  7  2  0  0  0  0
  6 12  1  0  0  0  0
  7  8  1  0  0  0  0
  7 10  1  0  0  0  0
  8  9  2  0  0  0  0
 10 11  1  0  0  0  0
 11 12  1  0  0  0  0
M  END
>  <ActivityOutcome_CPDBAS_Rat>
active

>  <cdk:Formula>
[]

>  <TD50_Rat_mmol>
0.871

>  <net.bioclipse.cdk.fingerprint>
BEAIABIAAAAAAAgAAggAAACAAAIAQAACCAgkAmEAAASAgAAIAAAgAAAgBOAgAAAAAEAAICBAQAAAAAYYAAAIAEIEAAIEAAAAgAAQCAAAAAAAAJABAAACgAAgAALAQCAgYAIQAAJIGAQAAAAcAIAAIAQAAKABACAIAA==

$$$$

 OpenBabel04131118512D

 12 12  0  0  0  0  0  0  0  0999 V2000
    2.3013    0.0000    0.0000 C   0  0  0  0  0  0  0  0  0  0  0  0
    2.3013   -1.3269    0.0000 C   0  0  0  0  0  0  0  0  0  0  0  0
    3.4554   -1.9903    0.0000 C   0  0  0  0  0  0  0  0  0  0  0  0
    3.4554   -3.3241    0.0000 C   0  0  0  0  0  0  0  0  0  0  0  0
    2.3013   -3.9876    0.0000 O   0  0  0  0  0  0  0  0  0  0  0  0
    1.1541   -3.3241    0.0000 C   0  0  0  0  0  0  0  0  0  0  0  0
    1.1541   -1.9903    0.0000 O   0  0  0  0  0  0  0  0  0  0  0  0
    0.0000   -3.9876    0.0000 C   0  0  0  0  0  0  0  0  0  0  0  0
    4.6095   -3.9876    0.0000 O   0  0  0  0  0  0  0  0  0  0  0  0
    5.7567   -3.3241    0.0000 C   0  0  0  0  0  0  0  0  0  0  0  0
    5.7567   -1.9903    0.0000 O   0  0  0  0  0  0  0  0  0  0  0  0
    6.9108   -3.9876    0.0000 C   0  0  0  0  0  0  0  0  0  0  0  0
  1  2  1  0  0  0  0
  2  3  1  0  0  0  0
  2  7  1  0  0  0  0
  3  4  1  0  0  0  0
  4  5  1  0  0  0  0
  4  9  1  0  0  0  0
  5  6  1  0  0  0  0
  6  7  1  0  0  0  0
  6  8  1  0  0  0  0
  9 10  1  0  0  0  0
 10 11  2  0  0  0  0
 10 12  1  0  0  0  0
M  END
>  <ActivityOutcome_CPDBAS_Rat>
active

>  <cdk:Formula>
[]

>  <TD50_Rat_mmol>
4.11

>  <net.bioclipse.cdk.fingerprint>
AICAgAAAAAAAAAAEg8AEAAAQIAAAAAAAAIAAAACAAAAAAABEYACAAAAAAAAAAAAAcCQCAAAQAAAAAAAAAEAAAEAAAAAAAAAAQAAAAABAAAAQAAEACQAAAEAEQBEAAAACAAAAQGUAAAAAAAEAAAAQAAAAAAAAAFKwRAAAAAAAAAAA

$$$$

 OpenBabel04131118512D

 19 20  0  0  0  0  0  0  0  0999 V2000
    9.2163   -6.6542    0.0000 N   0  0  0  0  0  0  0  0  0  0  0  0
    8.0643   -5.9906    0.0000 C   0  0  0  0  0  0  0  0  0  0  0  0
    8.0643   -4.6542    0.0000 C   0  0  0  0  0  0  0  0  0  0  0  0
    6.9122   -6.6542    0.0000 C   0  0  0  0  0  0  0  0  0  0  0  0
    6.9122   -3.9907    0.0000 C   0  0  0  0  0  0  0  0  0  0  0  0
    5.7602   -5.9906    0.0000 C   0  0  0  0  0  0  0  0  0  0  0  0
    5.7602   -4.6542    0.0000 C   0  0  0  0  0  0  0  0  0  0  0  0
    4.6081   -3.9907    0.0000 C   0  0  0  0  0  0  0  0  0  0  0  0
    3.4561   -4.6634    0.0000 C   0  0  0  0  0  0  0  0  0  0  0  0
    0.0092   -3.9814    0.0000 C   0  0  0  0  0  0  0  0  0  0  0  0
    0.0000   -2.6635    0.0000 C   0  0  0  0  0  0  0  0  0  0  0  0
    1.1520   -1.9999    0.0000 C   0  0  0  0  0  0  0  0  0  0  0  0
    2.3041   -2.6635    0.0000 C   0  0  0  0  0  0  0  0  0  0  0  0
    2.3041   -3.9999    0.0000 C   0  0  0  0  0  0  0  0  0  0  0  0
    1.1613   -4.6450    0.0000 C   0  0  0  0  0  0  0  0  0  0  0  0
    1.1613   -5.9814    0.0000 O   0  0  0  0  0  0  0  0  0  0  0  0
    0.0092   -6.6450    0.0000 C   0  0  0  0  0  0  0  0  0  0  0  0
    1.1520   -0.6636    0.0000 O   0  0  0  0  0  0  0  0  0  0  0  0
    0.0000    0.0000    0.0000 C   0  0  0  0  0  0  0  0  0  0  0  0
  1  2  1  0  0  0  0
  2  3  2  0  0  0  0
  2  4  1  0  0  0  0
  3  5  1  0  0  0  0
  4  6  2  0  0  0  0
  5  7  2  0  0  0  0
  6  7  1  0  0  0  0
  7  8  1  0  0  0  0
  8  9  2  0  0  0  0
  9 14  1  0  0  0  0
 10 15  2  0  0  0  0
 10 11  1  0  0  0  0
 11 12  2  0  0  0  0
 12 13  1  0  0  0  0
 12 18  1  0  0  0  0
 13 14  2  0  0  0  0
 14 15  1  0  0  0  0
 15 16  1  0  0  0  0
 16 17  1  0  0  0  0
 18 19  1  0  0  0  0
M  END
>  <ActivityOutcome_CPDBAS_Rat>
active

>  <cdk:Formula>
[]

>  <TD50_Rat_mmol>
0.00282

>  <net.bioclipse.cdk.fingerprint>
QAAgEgAAACAIAAIAAAAAAAACAAAAEEGAAAAAAAwABiAAAmEARACAwAAAAACAABQgAAAgAAAQCEQAAAAAAAAKAAaQAAAAEJEAAAIEAAAAgiABAEBQAAgAAIAAAAACgAAgAAAAQCAgIEAAEAJCAAgAAJAEAIABCACAAAQAAiIQAA==

$$$$

 OpenBabel04131118512D

 22 23  0  0  0  0  0  0  0  0999 V2000
   10.6341    0.0000    0.0000 C   0  0  0  0  0  0  0  0  0  0  0  0
    9.3064    0.0000    0.0000 O   0  0  0  0  0  0  0  0  0  0  0  0
    8.6365   -1.1483    0.0000 C   0  0  0  0  0  0  0  0  0  0  0  0
    9.3064   -2.3086    0.0000 C   0  0  0  0  0  0  0  0  0  0  0  0
    8.6365   -3.4570    0.0000 C   0  0  0  0  0  0  0  0  0  0  0  0
    7.3087   -3.4570    0.0000 C   0  0  0  0  0  0  0  0  0  0  0  0
    6.6508   -2.3086    0.0000 C   0  0  0  0  0  0  0  0  0  0  0  0
    7.3087   -1.1483    0.0000 C   0  0  0  0  0  0  0  0  0  0  0  0
    5.3111   -2.3086    0.0000 C   0  0  0  0  0  0  0  0  0  0  0  0
    4.6532   -3.4570    0.0000 C   0  0  0  0  0  0  0  0  0  0  0  0
    3.3254   -3.4570    0.0000 C   0  0  0  0  0  0  0  0  0  0  0  0
    2.6555   -2.3086    0.0000 C   0  0  0  0  0  0  0  0  0  0  0  0
    3.3254   -1.1483    0.0000 C   0  0  0  0  0  0  0  0  0  0  0  0
    4.6532   -1.1483    0.0000 C   0  0  0  0  0  0  0  0  0  0  0  0
    1.3278   -2.3086    0.0000 N   0  0  0  0  0  0  0  0  0  0  0  0
    0.6699   -1.1483    0.0000 C   0  0  0  0  0  0  0  0  0  0  0  0
    0.0000    0.0000    0.0000 O   0  0  0  0  0  0  0  0  0  0  0  0
    2.6555   -4.6053    0.0000 O   0  0  0  0  0  0  0  0  0  0  0  0
    1.3278   -4.6053    0.0000 C   0  0  0  0  0  0  0  0  0  0  0  0
   10.6341   -2.3086    0.0000 N   0  0  0  0  0  0  0  0  0  0  0  0
   11.2920   -3.4570    0.0000 C   0  0  0  0  0  0  0  0  0  0  0  0
   11.9619   -4.6053    0.0000 O   0  0  0  0  0  0  0  0  0  0  0  0
  1  2  1  0  0  0  0
  2  3  1  0  0  0  0
  3  4  2  0  0  0  0
  3  8  1  0  0  0  0
  4  5  1  0  0  0  0
  4 20  1  0  0  0  0
  5  6  2  0  0  0  0
  6  7  1  0  0  0  0
  7  8  2  0  0  0  0
  7  9  1  0  0  0  0
  9 10  2  0  0  0  0
  9 14  1  0  0  0  0
 10 11  1  0  0  0  0
 11 12  2  0  0  0  0
 11 18  1  0  0  0  0
 12 13  1  0  0  0  0
 12 15  1  0  0  0  0
 13 14  2  0  0  0  0
 15 16  2  0  0  0  0
 16 17  2  0  0  0  0
 18 19  1  0  0  0  0
 20 21  2  0  0  0  0
 21 22  2  0  0  0  0
M  END
>  <ActivityOutcome_CPDBAS_Rat>
active

>  <cdk:Formula>
[]

>  <TD50_Rat_mmol>
5.5

>  <net.bioclipse.cdk.fingerprint>
QCEAAABACCAOQAIAEAEAAAAAAAARAEHCAAACA0QAAwAAAmkAAACAgAAAAAAYAABgAIAgAAAEAEQAQIAAAAAAQI4QAAIAAACAAAIEAAAAwAAAAAAAAAgIAIIQAQAAgAAgAEAAQCAhIAAAQAJIIQEAAAAACICAhAAQCAgiACIQAA==

$$$$

 OpenBabel04131118512D

 28 32  0  0  0  0  0  0  0  0999 V2000
    1.1473   -6.6541    0.0000 O   0  0  0  0  0  0  0  0  0  0  0  0
    2.3045   -5.9857    0.0000 C   0  0  0  0  0  0  0  0  0  0  0  0
    3.4517   -6.6541    0.0000 C   0  0  0  0  0  0  0  0  0  0  0  0
    4.6090   -5.9857    0.0000 C   0  0  0  0  0  0  0  0  0  0  0  0
    5.7562   -6.6541    0.0000 C   0  0  0  0  0  0  0  0  0  0  0  0
    5.7562   -7.9809    0.0000 C   0  0  0  0  0  0  0  0  0  0  0  0
    4.6090   -8.6493    0.0000 C   0  0  0  0  0  0  0  0  0  0  0  0
    3.4517   -7.9809    0.0000 C   0  0  0  0  0  0  0  0  0  0  0  0
    2.3045   -8.6493    0.0000 O   0  0  0  0  0  0  0  0  0  0  0  0
    2.3045   -9.9761    0.0000 C   0  0  0  0  0  0  0  0  0  0  0  0
    7.0232   -8.3899    0.0000 O   0  0  0  0  0  0  0  0  0  0  0  0
    7.8113   -7.3125    0.0000 C   0  0  0  0  0  0  0  0  0  0  0  0
    7.0232   -6.2351    0.0000 C   0  0  0  0  0  0  0  0  0  0  0  0
    7.8113   -5.1676    0.0000 C   0  0  0  0  0  0  0  0  0  0  0  0
    9.0683   -5.5767    0.0000 C   0  0  0  0  0  0  0  0  0  0  0  0
    9.0683   -6.9035    0.0000 O   0  0  0  0  0  0  0  0  0  0  0  0
    4.6090   -4.6589    0.0000 O   0  0  0  0  0  0  0  0  0  0  0  0
    3.4517   -3.9905    0.0000 C   0  0  0  0  0  0  0  0  0  0  0  0
    2.3045   -4.6589    0.0000 C   0  0  0  0  0  0  0  0  0  0  0  0
    1.1473   -3.9905    0.0000 C   0  0  0  0  0  0  0  0  0  0  0  0
    1.1473   -2.6636    0.0000 C   0  0  0  0  0  0  0  0  0  0  0  0
    2.3045   -1.9952    0.0000 C   0  0  0  0  0  0  0  0  0  0  0  0
    3.4517   -2.6636    0.0000 C   0  0  0  0  0  0  0  0  0  0  0  0
    4.6090   -1.9952    0.0000 O   0  0  0  0  0  0  0  0  0  0  0  0
    4.6090   -0.6684    0.0000 C   0  0  0  0  0  0  0  0  0  0  0  0
    2.3045   -0.6684    0.0000 O   0  0  0  0  0  0  0  0  0  0  0  0
    1.1473    0.0000    0.0000 C   0  0  0  0  0  0  0  0  0  0  0  0
    0.0000   -4.6589    0.0000 O   0  0  0  0  0  0  0  0  0  0  0  0
  1  2  2  0  0  0  0
  2  3  1  0  0  0  0
  2 19  1  0  0  0  0
  3  4  2  0  0  0  0
  3  8  1  0  0  0  0
  4  5  1  0  0  0  0
  4 17  1  0  0  0  0
  5  6  2  0  0  0  0
  5 13  1  0  0  0  0
  6  7  1  0  0  0  0
  6 11  1  0  0  0  0
  7  8  2  0  0  0  0
  8  9  1  0  0  0  0
  9 10  1  0  0  0  0
 11 12  1  0  0  0  0
 12 13  1  0  0  0  0
 12 16  1  0  0  0  0
 13 14  1  0  0  0  0
 14 15  2  0  0  0  0
 15 16  1  0  0  0  0
 17 18  1  0  0  0  0
 18 19  2  0  0  0  0
 18 23  1  0  0  0  0
 19 20  1  0  0  0  0
 20 21  2  0  0  0  0
 20 28  1  0  0  0  0
 21 22  1  0  0  0  0
 22 23  2  0  0  0  0
 22 26  1  0  0  0  0
 23 24  1  0  0  0  0
 24 25  1  0  0  0  0
 26 27  1  0  0  0  0
M  END
>  <ActivityOutcome_CPDBAS_Rat>
active

>  <cdk:Formula>
[]

>  <TD50_Rat_mmol>
0.000947

>  <net.bioclipse.cdk.fingerprint>
AIhAAgIAAgOEQkiAAkaZkERYiZAyHoUUaICUCuJyAG4KbhxjaRLAAoeqAIBs6jgAFDgWJCBUgFQFRgkEKlAAIUYQDhwAQY6CQ4kYMjQioSbfDnEJQgEAKFAE0DPAIAKAACACQkHAIjYgIxgwHkyKLPbxO7QJsjEqSWMCMIciIEgB

$$$$

 OpenBabel04131118512D

 17 18  0  0  0  0  0  0  0  0999 V2000
    0.0000   -3.4549    0.0000 C   0  0  0  0  0  0  0  0  0  0  0  0
    0.6591   -2.3068    0.0000 N   0  0  0  0  0  0  0  0  0  0  0  0
    1.9879   -2.3068    0.0000 C   0  0  0  0  0  0  0  0  0  0  0  0
    2.6576   -1.1481    0.0000 C   0  0  0  0  0  0  0  0  0  0  0  0
    3.9864   -1.1481    0.0000 C   0  0  0  0  0  0  0  0  0  0  0  0
    4.6561   -2.3068    0.0000 C   0  0  0  0  0  0  0  0  0  0  0  0
    3.9864   -3.4549    0.0000 C   0  0  0  0  0  0  0  0  0  0  0  0
    2.6576   -3.4549    0.0000 C   0  0  0  0  0  0  0  0  0  0  0  0
    5.9849   -2.3068    0.0000 N   0  0  0  0  0  0  0  0  0  0  0  0
    6.6440   -1.1481    0.0000 N   0  0  0  0  0  0  0  0  0  0  0  0
    7.9728   -1.1481    0.0000 C   0  0  0  0  0  0  0  0  0  0  0  0
    8.6425    0.0000    0.0000 C   0  0  0  0  0  0  0  0  0  0  0  0
    9.9606    0.0000    0.0000 C   0  0  0  0  0  0  0  0  0  0  0  0
   10.6303   -1.1481    0.0000 C   0  0  0  0  0  0  0  0  0  0  0  0
    9.9606   -2.3068    0.0000 C   0  0  0  0  0  0  0  0  0  0  0  0
    8.6425   -2.3068    0.0000 C   0  0  0  0  0  0  0  0  0  0  0  0
    0.0000   -1.1481    0.0000 C   0  0  0  0  0  0  0  0  0  0  0  0
  1  2  1  0  0  0  0
  2  3  1  0  0  0  0
  2 17  1  0  0  0  0
  3  4  2  0  0  0  0
  3  8  1  0  0  0  0
  4  5  1  0  0  0  0
  5  6  2  0  0  0  0
  6  7  1  0  0  0  0
  6  9  1  0  0  0  0
  7  8  2  0  0  0  0
  9 10  2  0  0  0  0
 10 11  1  0  0  0  0
 11 12  2  0  0  0  0
 11 16  1  0  0  0  0
 12 13  1  0  0  0  0
 13 14  2  0  0  0  0
 14 15  1  0  0  0  0
 15 16  2  0  0  0  0
M  END
>  <ActivityOutcome_CPDBAS_Rat>
active

>  <cdk:Formula>
[]

>  <TD50_Rat_mmol>
0.0147

>  <net.bioclipse.cdk.fingerprint>
QAAgAAAAAAAAAQIAAAABAABAEABACAAEQBIAAABoEAAAAAAAAAAAQAAAAAAEAAAAAgBAAAAIgAQAEEAAAAIAAAAAIAAAAQAAAAAAAAAAAAAAAAAgAAAAAAAAIAAAAAAgAAAgAAACAAAACABAAACAAAIAAAAQAAADEIA=

$$$$

 OpenBabel04131118512D

  6  5  0  0  0  0  0  0  0  0999 V2000
    1.6373    0.0000    0.0000 O   0  0  0  0  0  0  0  0  0  0  0  0
    2.3034   -1.1517    0.0000 P   0  0  0  0  0  0  0  0  0  0  0  0
    2.9694   -2.3034    0.0000 O   0  0  0  0  0  0  0  0  0  0  0  0
    4.2973   -2.3034    0.0000 C   0  0  0  0  0  0  0  0  0  0  0  0
    1.1517   -1.8178    0.0000 O   0  0  0  0  0  0  0  0  0  0  0  0
    0.0000   -1.1517    0.0000 C   0  0  0  0  0  0  0  0  0  0  0  0
  1  2  2  0  0  0  0
  2  3  1  0  0  0  0
  2  5  1  0  0  0  0
  3  4  1  0  0  0  0
  5  6  1  0  0  0  0
M  END
>  <ActivityOutcome_CPDBAS_Rat>
active

>  <cdk:Formula>
[]

>  <TD50_Rat_mmol>
1.26

>  <net.bioclipse.cdk.fingerprint>
AgAAAAAAAAAAAAAACAAAAAAAAAAAAAABYAAAAAAAAAAAAAQAAAAAAAAAAAAAAAAAAAAAAAAAAQAAAAAAAAAAAAAAAAAAAAAAAAAAAAAABAAAAAAAAAAAAAAAAAAIAgAAAAAEAAAAAAAAAAAAAAAAAAAAAIAA

$$$$

 OpenBabel04131118512D

  7  6  0  0  0  0  0  0  0  0999 V2000
    1.6373    0.0000    0.0000 C   0  0  0  0  0  0  0  0  0  0  0  0
    2.3034   -1.1517    0.0000 P   0  0  0  0  0  0  0  0  0  0  0  0
    3.4550   -0.4856    0.0000 O   0  0  0  0  0  0  0  0  0  0  0  0
    2.9694   -2.3034    0.0000 O   0  0  0  0  0  0  0  0  0  0  0  0
    4.2973   -2.3034    0.0000 C   0  0  0  0  0  0  0  0  0  0  0  0
    1.1517   -1.8178    0.0000 O   0  0  0  0  0  0  0  0  0  0  0  0
    0.0000   -1.1517    0.0000 C   0  0  0  0  0  0  0  0  0  0  0  0
  1  2  1  0  0  0  0
  2  3  2  0  0  0  0
  2  4  1  0  0  0  0
  2  6  1  0  0  0  0
  4  5  1  0  0  0  0
  6  7  1  0  0  0  0
M  END
>  <ActivityOutcome_CPDBAS_Rat>
active

>  <cdk:Formula>
[]

>  <TD50_Rat_mmol>
5.64

>  <net.bioclipse.cdk.fingerprint>
EAAAAAAAAAAAAAACAABAAAAAAAAAAAAIAAAAAAAAAAAAAAFgAAAAAAAAAAAABAAAAAAAAAAAAAAAAAAAAAAAAAABgAAAAAAAAAAAAAAAAAAAAAAAAAAAAAAEAAAAAAAAAAAAAAAAAAoCAAAAAAQAAAAAAAAAAAAAAAAAAAAAgAA=

$$$$

 OpenBabel04131118512D

 12 12  0  0  0  0  0  0  0  0999 V2000
    3.9931   -1.9996    0.0000 P   0  0  0  0  0  0  0  0  0  0  0  0
    3.9931   -3.3286    0.0000 O   0  0  0  0  0  0  0  0  0  0  0  0
    3.9931   -0.6705    0.0000 O   0  0  0  0  0  0  0  0  0  0  0  0
    5.1426    0.0000    0.0000 C   0  0  0  0  0  0  0  0  0  0  0  0
    5.3222   -1.9996    0.0000 O   0  0  0  0  0  0  0  0  0  0  0  0
    5.9867   -3.1490    0.0000 C   0  0  0  0  0  0  0  0  0  0  0  0
    2.6581   -1.9996    0.0000 N   0  0  0  0  0  0  0  0  0  0  0  0
    1.9936   -3.1490    0.0000 C   0  0  0  0  0  0  0  0  0  0  0  0
    0.6645   -3.1490    0.0000 C   0  0  0  0  0  0  0  0  0  0  0  0
    0.0000   -1.9996    0.0000 O   0  0  0  0  0  0  0  0  0  0  0  0
    0.6645   -0.8441    0.0000 C   0  0  0  0  0  0  0  0  0  0  0  0
    1.9936   -0.8441    0.0000 C   0  0  0  0  0  0  0  0  0  0  0  0
  1  2  2  0  0  0  0
  1  3  1  0  0  0  0
  1  5  1  0  0  0  0
  1  7  1  0  0  0  0
  3  4  1  0  0  0  0
  5  6  1  0  0  0  0
  7  8  1  0  0  0  0
  7 12  1  0  0  0  0
  8  9  1  0  0  0  0
  9 10  1  0  0  0  0
 10 11  1  0  0  0  0
 11 12  1  0  0  0  0
M  END
>  <ActivityOutcome_CPDBAS_Rat>
active

>  <cdk:Formula>
[]

>  <TD50_Rat_mmol>
3.15

>  <net.bioclipse.cdk.fingerprint>
BAAQAAEAAAAGAQACAAAAAAMAAAAAAgAIgAAAAAAAAAAAAwVgIIAAAAAAAAAABAAIIAoAAEAAAAAAAARAgAAAACADABAAAAAAAAAAAAAEAIAAAABAAAAAAAAEEAAAAAAAAAAgAAAAAgwCAAAAAAQAAAAAAAAAAAEEAABIgAADgAA=

$$$$

 OpenBabel04131118512D

 16 17  0  0  0  0  0  0  0  0999 V2000
    7.6582   -1.6149    0.0000 C   0  0  0  0  0  0  0  0  0  0  0  0
    8.3241   -2.7636    0.0000 C   0  0  0  0  0  0  0  0  0  0  0  0
    7.6582   -3.9207    0.0000 C   0  0  0  0  0  0  0  0  0  0  0  0
    6.3263   -3.9207    0.0000 N   0  0  0  0  0  0  0  0  0  0  0  0
    5.6687   -2.7636    0.0000 C   0  0  0  0  0  0  0  0  0  0  0  0
    6.3263   -1.6149    0.0000 N   0  0  0  0  0  0  0  0  0  0  0  0
    4.3369   -2.7636    0.0000 C   0  0  0  0  0  0  0  0  0  0  0  0
    3.5544   -3.8457    0.0000 C   0  0  0  0  0  0  0  0  0  0  0  0
    2.2891   -3.4295    0.0000 C   0  0  0  0  0  0  0  0  0  0  0  0
    2.2891   -2.1060    0.0000 C   0  0  0  0  0  0  0  0  0  0  0  0
    3.5544   -1.6898    0.0000 O   0  0  0  0  0  0  0  0  0  0  0  0
    1.2153   -1.3235    0.0000 N   0  3  0  0  0  0  0  0  0  0  0  0
    0.0000   -1.8646    0.0000 O   0  5  0  0  0  0  0  0  0  0  0  0
    1.3568    0.0000    0.0000 O   0  0  0  0  0  0  0  0  0  0  0  0
    8.3241   -5.0694    0.0000 C   0  0  0  0  0  0  0  0  0  0  0  0
    8.3241   -0.4661    0.0000 C   0  0  0  0  0  0  0  0  0  0  0  0
  1  2  2  0  0  0  0
  1  6  1  0  0  0  0
  1 16  1  0  0  0  0
  2  3  1  0  0  0  0
  3  4  2  0  0  0  0
  3 15  1  0  0  0  0
  4  5  1  0  0  0  0
  5  6  2  0  0  0  0
  5  7  1  0  0  0  0
  7  8  2  0  0  0  0
  7 11  1  0  0  0  0
  8  9  1  0  0  0  0
  9 10  2  0  0  0  0
 10 11  1  0  0  0  0
 10 12  1  0  0  0  0
 12 13  1  0  0  0  0
 12 14  2  0  0  0  0
M  CHG  2  12   1  13  -1
M  END
>  <ActivityOutcome_CPDBAS_Rat>
active

>  <cdk:Formula>
[]

>  <TD50_Rat_mmol>
0.00634

>  <net.bioclipse.cdk.fingerprint>
AiAAAjiCM6EgQBAIAJDSAAhKIKAAgJLBkACIQQAECAYAAIBiAAQgAIAQgBAAKAIAMAAAAAIAAAJAAAAAAASAQBEAAAAUAAQAABAAAEAOkAIQAAKAEAQEQOSAEEAgAIgMIADUAZQgDQRoACIEQJCLAQgIgAIigAAgBAAAAAIiAAI=

$$$$

 OpenBabel04131118512D

 10 10  0  0  0  0  0  0  0  0999 V2000
    2.3044   -1.9948    0.0000 C   0  0  0  0  0  0  0  0  0  0  0  0
    3.5196   -1.4560    0.0000 N   0  0  0  0  0  0  0  0  0  0  0  0
    4.4081   -2.4420    0.0000 C   0  0  0  0  0  0  0  0  0  0  0  0
    5.7323   -2.3044    0.0000 C   0  0  0  0  0  0  0  0  0  0  0  0
    3.7432   -3.5942    0.0000 N   0  0  0  0  0  0  0  0  0  0  0  0
    2.4420   -3.3190    0.0000 C   0  0  0  0  0  0  0  0  0  0  0  0
    3.7948   -0.1548    0.0000 C   0  0  0  0  0  0  0  0  0  0  0  0
    1.1522   -1.3299    0.0000 N   0  3  0  0  0  0  0  0  0  0  0  0
    1.1522    0.0000    0.0000 O   0  0  0  0  0  0  0  0  0  0  0  0
    0.0000   -1.9948    0.0000 O   0  5  0  0  0  0  0  0  0  0  0  0
  1  2  1  0  0  0  0
  1  6  2  0  0  0  0
  1  8  1  0  0  0  0
  2  3  1  0  0  0  0
  2  7  1  0  0  0  0
  3  4  1  0  0  0  0
  3  5  2  0  0  0  0
  5  6  1  0  0  0  0
  8  9  2  0  0  0  0
  8 10  1  0  0  0  0
M  CHG  2   8   1  10  -1
M  END
>  <ActivityOutcome_CPDBAS_Rat>
active

>  <cdk:Formula>
[]

>  <TD50_Rat_mmol>
0.12

>  <net.bioclipse.cdk.fingerprint>
AnCIIiUAAAAoABEQAAADIAAAAFAAABACQAAEAAQAAABgAAAAAIIAAAAAAEAAIAAAgAIAAABAAAAAIAAAAAEAAACEAAAAAEAAAQAgIAAAYBAEAAEAQCAAAAJAAICEAAAEEAQAABAAACIAAAABIAAAAAAAAQAAAAAAAAACAAI=

$$$$

 OpenBabel04131118512D

 20 21  0  0  0  0  0  0  0  0999 V2000
    1.2957   -1.2544    0.0000 N   0  3  0  0  0  0  0  0  0  0  0  0
    0.0000   -1.5301    0.0000 O   0  5  0  0  0  0  0  0  0  0  0  0
    1.7093    0.0000    0.0000 O   0  0  0  0  0  0  0  0  0  0  0  0
    2.1917   -2.2469    0.0000 C   0  0  0  0  0  0  0  0  0  0  0  0
    3.5151   -2.1090    0.0000 O   0  0  0  0  0  0  0  0  0  0  0  0
    4.0527   -3.3221    0.0000 C   0  0  0  0  0  0  0  0  0  0  0  0
    3.0602   -4.2181    0.0000 C   0  0  0  0  0  0  0  0  0  0  0  0
    1.9161   -3.5426    0.0000 C   0  0  0  0  0  0  0  0  0  0  0  0
    5.3484   -3.5978    0.0000 C   0  0  0  0  0  0  0  0  0  0  0  0
    5.7620   -4.8660    0.0000 C   0  0  0  0  0  0  0  0  0  0  0  0
    7.0715   -5.1416    0.0000 C   0  0  0  0  0  0  0  0  0  0  0  0
    8.0502   -4.2456    0.0000 O   0  0  0  0  0  0  0  0  0  0  0  0
    9.2081   -4.9211    0.0000 C   0  0  0  0  0  0  0  0  0  0  0  0
   10.4211   -4.3697    0.0000 N   0  0  0  0  0  0  0  0  0  0  0  0
   11.4963   -5.1554    0.0000 C   0  0  0  0  0  0  0  0  0  0  0  0
   12.7094   -4.6178    0.0000 N   0  0  0  0  0  0  0  0  0  0  0  0
   12.8472   -3.2945    0.0000 C   0  0  0  0  0  0  0  0  0  0  0  0
   13.7846   -5.4036    0.0000 C   0  0  0  0  0  0  0  0  0  0  0  0
    8.9324   -6.2168    0.0000 N   0  0  0  0  0  0  0  0  0  0  0  0
    7.6091   -6.3547    0.0000 N   0  0  0  0  0  0  0  0  0  0  0  0
  1  2  1  0  0  0  0
  1  3  2  0  0  0  0
  1  4  1  0  0  0  0
  4  5  1  0  0  0  0
  4  8  2  0  0  0  0
  5  6  1  0  0  0  0
  6  7  2  0  0  0  0
  6  9  1  0  0  0  0
  7  8  1  0  0  0  0
  9 10  2  0  0  0  0
 10 11  1  0  0  0  0
 11 12  1  0  0  0  0
 11 20  2  0  0  0  0
 12 13  1  0  0  0  0
 13 14  1  0  0  0  0
 13 19  2  0  0  0  0
 14 15  1  0  0  0  0
 15 16  1  0  0  0  0
 16 17  1  0  0  0  0
 16 18  1  0  0  0  0
 19 20  1  0  0  0  0
M  CHG  2   1   1   2  -1
M  END
>  <ActivityOutcome_CPDBAS_Rat>
active

>  <cdk:Formula>
[]

>  <TD50_Rat_mmol>
0.0802

>  <net.bioclipse.cdk.fingerprint>
EMADBBiLCSWjEB5pAQDgABBKKAgAAJLBEQAQQBAMhlQAAAB8AmQBBBAQAAOAgRCAIEIQAAIIlQFQSIiAgASCAAARgAABAABSIQIABFAMhAgUAEKCsCCEAECADAAgQ8REIABkMxQjBAAgAXIgYJAIAAgAwAQCgJhggIpBRwASCMA=

$$$$

 OpenBabel04131118512D

  9  9  0  0  0  0  0  0  0  0999 V2000
    0.0000   -2.3037    0.0000 C   0  0  0  0  0  0  0  0  0  0  0  0
    0.6655   -1.1542    0.0000 N   0  0  0  0  0  0  0  0  0  0  0  0
    1.9965   -1.1542    0.0000 C   0  0  0  0  0  0  0  0  0  0  0  0
    2.6574    0.0000    0.0000 C   0  0  0  0  0  0  0  0  0  0  0  0
    3.9884    0.0000    0.0000 C   0  0  0  0  0  0  0  0  0  0  0  0
    4.6539   -1.1542    0.0000 C   0  0  0  0  0  0  0  0  0  0  0  0
    3.9884   -2.3037    0.0000 C   0  0  0  0  0  0  0  0  0  0  0  0
    2.6574   -2.3037    0.0000 C   0  0  0  0  0  0  0  0  0  0  0  0
    0.0000    0.0000    0.0000 C   0  0  0  0  0  0  0  0  0  0  0  0
  1  2  1  0  0  0  0
  2  3  1  0  0  0  0
  2  9  1  0  0  0  0
  3  4  2  0  0  0  0
  3  8  1  0  0  0  0
  4  5  1  0  0  0  0
  5  6  2  0  0  0  0
  6  7  1  0  0  0  0
  7  8  2  0  0  0  0
M  END
>  <ActivityOutcome_CPDBAS_Rat>
active

>  <cdk:Formula>
[]

>  <TD50_Rat_mmol>
1.03

>  <net.bioclipse.cdk.fingerprint>
IAAAAAAAAAAAAAAAAAAAQAAAAAAABEACAAAAYAAAAAAAAAAAAAAAAAAABAAAAAIAQAAAAIAEAABAAAAAAAAAAAAAAAAAAAAAAAAAAAAAAAAAAAAAAAAAACAAAAAAIAAAAAAAAgAAAAAAAAAAgAAAAAAAAAAAAhAA

$$$$

 OpenBabel04131118512D

 17 18  0  0  0  0  0  0  0  0999 V2000
    5.5607   -3.1807    0.0000 C   0  0  0  0  0  0  0  0  0  0  0  0
    6.4504   -2.2020    0.0000 N   0  0  0  0  0  0  0  0  0  0  0  0
    7.6626   -2.7359    0.0000 C   0  0  0  0  0  0  0  0  0  0  0  0
    7.5292   -4.0593    0.0000 S   0  0  0  0  0  0  0  0  0  0  0  0
    6.2280   -4.3373    0.0000 C   0  0  0  0  0  0  0  0  0  0  0  0
    8.8192   -2.0686    0.0000 N   0  0  0  0  0  0  0  0  0  0  0  0
    9.9647   -2.7359    0.0000 N   0  0  0  0  0  0  0  0  0  0  0  0
   11.1214   -2.0686    0.0000 C   0  0  0  0  0  0  0  0  0  0  0  0
    9.9647   -4.0704    0.0000 C   0  0  0  0  0  0  0  0  0  0  0  0
    4.2372   -3.0473    0.0000 C   0  0  0  0  0  0  0  0  0  0  0  0
    3.3475   -4.0371    0.0000 C   0  0  0  0  0  0  0  0  0  0  0  0
    2.1353   -3.4921    0.0000 C   0  0  0  0  0  0  0  0  0  0  0  0
    2.2688   -2.1687    0.0000 C   0  0  0  0  0  0  0  0  0  0  0  0
    3.5700   -1.8906    0.0000 O   0  0  0  0  0  0  0  0  0  0  0  0
    1.2901   -1.2790    0.0000 N   0  3  0  0  0  0  0  0  0  0  0  0
    0.0000   -1.6237    0.0000 O   0  5  0  0  0  0  0  0  0  0  0  0
    1.6237    0.0000    0.0000 O   0  0  0  0  0  0  0  0  0  0  0  0
  1  2  1  0  0  0  0
  1  5  2  0  0  0  0
  1 10  1  0  0  0  0
  2  3  2  0  0  0  0
  3  4  1  0  0  0  0
  3  6  1  0  0  0  0
  4  5  1  0  0  0  0
  6  7  1  0  0  0  0
  7  8  1  0  0  0  0
  7  9  1  0  0  0  0
 10 11  2  0  0  0  0
 10 14  1  0  0  0  0
 11 12  1  0  0  0  0
 12 13  2  0  0  0  0
 13 14  1  0  0  0  0
 13 15  1  0  0  0  0
 15 16  1  0  0  0  0
 15 17  2  0  0  0  0
M  CHG  2  15   1  16  -1
M  END
>  <ActivityOutcome_CPDBAS_Rat>
active

>  <cdk:Formula>
[]

>  <TD50_Rat_mmol>
0.00161

>  <net.bioclipse.cdk.fingerprint>
CAAGB/jCQydgAJAIBZCUAAFKoKKQkRDBEAGAQQQsQEaAAJFkgAYABEAYlQACYQAApEBBAAIABAZAgoAAgAahAAFMAgJUBEASA1ACkEAsiEAQMAIFkAMECMWgBKAgiIgEYAFUIhUgpQD4oHIAQLCaAggAwEECgQIAAAkMggIDAIU=

$$$$

 OpenBabel04131118512D

  6  5  0  0  0  0  0  0  0  0999 V2000
    3.3250   -1.1509    0.0000 O   0  5  0  0  0  0  0  0  0  0  0  0
    1.9943   -1.1509    0.0000 N   0  3  0  0  0  0  0  0  0  0  0  0
    1.3307    0.0000    0.0000 O   0  0  0  0  0  0  0  0  0  0  0  0
    1.3307   -2.3053    0.0000 N   0  0  0  0  0  0  0  0  0  0  0  0
    1.9943   -3.4563    0.0000 C   0  0  0  0  0  0  0  0  0  0  0  0
    0.0000   -2.3053    0.0000 C   0  0  0  0  0  0  0  0  0  0  0  0
  1  2  1  0  0  0  0
  2  3  2  0  0  0  0
  2  4  1  0  0  0  0
  4  5  1  0  0  0  0
  4  6  1  0  0  0  0
M  CHG  2   1  -1   2   1
M  END
>  <ActivityOutcome_CPDBAS_Rat>
active

>  <cdk:Formula>
[]

>  <TD50_Rat_mmol>
0.00607

>  <net.bioclipse.cdk.fingerprint>
CAAAAAAAAAAAAAAAAAAAAAAAAAAEAAAAYAAAAQAAAAAAAAAAAAAAAQAEAAAAAAAAAIAAAAAAAAAAAAAAAAAAAAAAAAAAAAAAAAAAAAAAAAAAAAAAAAAABCAAAAAAAAAAAAAAAAAAAAAAAAAAAAAAAAAAAwAA

$$$$

 OpenBabel04131118512D

  5  4  0  0  0  0  0  0  0  0999 V2000
    3.4567   -1.9945    0.0000 C   0  0  0  0  0  0  0  0  0  0  0  0
    2.3056   -1.3308    0.0000 C   0  0  0  0  0  0  0  0  0  0  0  0
    1.1511   -1.9945    0.0000 C   0  0  0  0  0  0  0  0  0  0  0  0
    0.0000   -1.3308    0.0000 Cl  0  0  0  0  0  0  0  0  0  0  0  0
    2.3056    0.0000    0.0000 C   0  0  0  0  0  0  0  0  0  0  0  0
  1  2  1  0  0  0  0
  2  3  2  0  0  0  0
  2  5  1  0  0  0  0
  3  4  1  0  0  0  0
M  END
>  <ActivityOutcome_CPDBAS_Rat>
active

>  <cdk:Formula>
[]

>  <TD50_Rat_mmol>
0.351

>  <net.bioclipse.cdk.fingerprint>
QAAAAAAAAAAAAAAAAAAAAAAAAAAAAAAAAAAAAAAAAAAAAMAAAAAAAAAAAAAAAAAgAAAAAAAQAAAAQABAAAABAAAAAAAAAAAAAAAAAAAAAAAAAABAAAAAAAAAAAAAAAAAAAAAAAAAAAAAAAAAAAAAAAAAAAAAAAAAAAAAAAAAAA==

$$$$

 OpenBabel04131118512D

 16 16  0  0  0  0  0  0  0  0999 V2000
    2.3467   -3.9783    0.0000 C   0  0  0  0  0  0  0  0  0  0  0  0
    1.2706   -4.7629    0.0000 N   0  0  0  0  0  0  0  0  0  0  0  0
    3.4298   -4.7629    0.0000 C   0  0  0  0  0  0  0  0  0  0  0  0
    1.6802   -6.0334    0.0000 C   0  0  0  0  0  0  0  0  0  0  0  0
    3.0133   -6.0334    0.0000 N   0  0  0  0  0  0  0  0  0  0  0  0
    2.3467   -2.6592    0.0000 C   0  0  0  0  0  0  0  0  0  0  0  0
    1.2011   -1.9926    0.0000 N   0  0  0  0  0  0  0  0  0  0  0  0
    4.6796   -4.3532    0.0000 N   0  0  0  0  0  0  0  0  0  0  0  0
    4.9573   -3.0480    0.0000 C   0  0  0  0  0  0  0  0  0  0  0  0
    0.0000   -4.3532    0.0000 C   0  0  0  0  0  0  0  0  0  0  0  0
    3.4923   -1.9926    0.0000 O   0  0  0  0  0  0  0  0  0  0  0  0
    5.6724   -5.2489    0.0000 N   0  0  0  0  0  0  0  0  0  0  0  0
    1.1942   -0.6665    0.0000 N   0  0  0  0  0  0  0  0  0  0  0  0
    0.0555   -2.6592    0.0000 C   0  0  0  0  0  0  0  0  0  0  0  0
    2.3398    0.0000    0.0000 O   0  0  0  0  0  0  0  0  0  0  0  0
    6.9430   -4.8323    0.0000 O   0  0  0  0  0  0  0  0  0  0  0  0
  1  2  1  0  0  0  0
  1  6  1  0  0  0  0
  1  3  2  0  0  0  0
  2  4  1  0  0  0  0
  2 10  1  0  0  0  0
  3  5  1  0  0  0  0
  3  8  1  0  0  0  0
  4  5  2  0  0  0  0
  6  7  1  0  0  0  0
  6 11  2  0  0  0  0
  7 13  1  0  0  0  0
  7 14  1  0  0  0  0
  8  9  1  0  0  0  0
  8 12  1  0  0  0  0
 12 16  2  0  0  0  0
 13 15  2  0  0  0  0
M  END
>  <ActivityOutcome_CPDBAS_Rat>
active

>  <cdk:Formula>
[]

>  <TD50_Rat_mmol>
0.000809

>  <net.bioclipse.cdk.fingerprint>
ECAIEiCCihUCAKAgAAHlAAAAYYAAAAAABABgABTEMARTCATgAEwGAAAAAiAAAGAhYAgdhgACCAJIAQAAgAIAEtExAAAWAEAAQECkQABAAJIAYBAAAEFADCAEAEJAAJgEEAhEMkRIShUAiAAECaABAAQAACIAUKBAAAACAsELAQI=

$$$$

 OpenBabel04131118512D

 11 11  0  0  0  0  0  0  0  0999 V2000
    0.0000   -2.6447    0.0000 O   0  0  0  0  0  0  0  0  0  0  0  0
    0.6630   -1.4989    0.0000 N   0  0  0  0  0  0  0  0  0  0  0  0
    1.9961   -1.4989    0.0000 N   0  0  0  0  0  0  0  0  0  0  0  0
    2.5726   -0.2955    0.0000 C   0  0  0  0  0  0  0  0  0  0  0  0
    3.8697    0.0000    0.0000 C   0  0  0  0  0  0  0  0  0  0  0  0
    4.9074   -0.8287    0.0000 N   0  0  0  0  0  0  0  0  0  0  0  0
    6.1036   -0.2522    0.0000 N   0  0  0  0  0  0  0  0  0  0  0  0
    7.2062   -1.0017    0.0000 O   0  0  0  0  0  0  0  0  0  0  0  0
    2.5726   -2.6951    0.0000 C   0  0  0  0  0  0  0  0  0  0  0  0
    3.8697   -2.9906    0.0000 C   0  0  0  0  0  0  0  0  0  0  0  0
    4.9074   -2.1619    0.0000 C   0  0  0  0  0  0  0  0  0  0  0  0
  1  2  2  0  0  0  0
  2  3  1  0  0  0  0
  3  4  1  0  0  0  0
  3  9  1  0  0  0  0
  4  5  1  0  0  0  0
  5  6  1  0  0  0  0
  6  7  1  0  0  0  0
  6 11  1  0  0  0  0
  7  8  2  0  0  0  0
  9 10  1  0  0  0  0
 10 11  1  0  0  0  0
M  END
>  <ActivityOutcome_CPDBAS_Rat>
active

>  <cdk:Formula>
[]

>  <TD50_Rat_mmol>
0.000389

>  <net.bioclipse.cdk.fingerprint>
EAAAAAAAAgAAAAABgAAAEAAAABgCAAAAAAAAAAAEhQABYAAABAAAAAAAAAAKQCAAERAAAAAAEAAAAMAEAAAAAAAAAACRAAAAAAAAAADAAAAAACQAAAAAAAAAAAAIAAAEBCgAAAAMEBAgAAAAAAAAAAAAAAAQAAAAAAAwAwAA

$$$$

 OpenBabel04131118512D

 13 13  0  0  0  0  0  0  0  0999 V2000
    3.4548   -3.9869    0.0000 C   0  0  0  0  0  0  0  0  0  0  0  0
    3.4548   -2.6602    0.0000 C   0  0  0  0  0  0  0  0  0  0  0  0
    2.3009   -1.9900    0.0000 C   0  0  0  0  0  0  0  0  0  0  0  0
    2.3009   -0.6633    0.0000 C   0  0  0  0  0  0  0  0  0  0  0  0
    3.4548    0.0000    0.0000 C   0  0  0  0  0  0  0  0  0  0  0  0
    4.6088   -0.6633    0.0000 C   0  0  0  0  0  0  0  0  0  0  0  0
    4.6088   -1.9900    0.0000 C   0  0  0  0  0  0  0  0  0  0  0  0
    5.7558   -2.6602    0.0000 N   0  3  0  0  0  0  0  0  0  0  0  0
    5.7558   -3.9869    0.0000 O   0  0  0  0  0  0  0  0  0  0  0  0
    6.9097   -1.9900    0.0000 O   0  5  0  0  0  0  0  0  0  0  0  0
    1.1539   -2.6602    0.0000 N   0  3  0  0  0  0  0  0  0  0  0  0
    1.1539   -3.9869    0.0000 O   0  0  0  0  0  0  0  0  0  0  0  0
    0.0000   -1.9900    0.0000 O   0  5  0  0  0  0  0  0  0  0  0  0
  1  2  1  0  0  0  0
  2  3  2  0  0  0  0
  2  7  1  0  0  0  0
  3  4  1  0  0  0  0
  3 11  1  0  0  0  0
  4  5  2  0  0  0  0
  5  6  1  0  0  0  0
  6  7  2  0  0  0  0
  7  8  1  0  0  0  0
  8  9  2  0  0  0  0
  8 10  1  0  0  0  0
 11 12  2  0  0  0  0
 11 13  1  0  0  0  0
M  CHG  4   8   1  10  -1  11   1  13  -1
M  END
>  <ActivityOutcome_CPDBAS_Rat>
active

>  <cdk:Formula>
[]

>  <TD50_Rat_mmol>
0.0016

>  <net.bioclipse.cdk.fingerprint>
EAIAACIAIAgAAAAEAAgAAAAAGEAAQAAAAAQABgAAAGABBAAAAAAAAAgAAABgAAAAAgAAAEAEAAAAAAAAAAQAAQAAQACAAAAAAAiAAQAAAAAAACAAEIAAAAAQgAAgAAQAQCAAAABAIAJAAAAAAAAAAIAABBAAAAAAAAIQAA==

$$$$

 OpenBabel04131118512D

  6  6  0  0  0  0  0  0  0  0999 V2000
    2.3036   -1.9950    0.0000 C   0  0  0  0  0  0  0  0  0  0  0  0
    1.1518   -2.6600    0.0000 C   0  0  0  0  0  0  0  0  0  0  0  0
    0.0000   -1.9950    0.0000 O   0  0  0  0  0  0  0  0  0  0  0  0
    0.0000   -0.6650    0.0000 C   0  0  0  0  0  0  0  0  0  0  0  0
    1.1518    0.0000    0.0000 C   0  0  0  0  0  0  0  0  0  0  0  0
    2.3036   -0.6650    0.0000 O   0  0  0  0  0  0  0  0  0  0  0  0
  1  2  1  0  0  0  0
  1  6  1  0  0  0  0
  2  3  1  0  0  0  0
  3  4  1  0  0  0  0
  4  5  1  0  0  0  0
  5  6  1  0  0  0  0
M  END
>  <ActivityOutcome_CPDBAS_Rat>
active

>  <cdk:Formula>
[]

>  <TD50_Rat_mmol>
3.03

>  <net.bioclipse.cdk.fingerprint>
AgAAAAAAAAAAAAAAAIAAAAEAAAAAAAAAYACAAAAAAAAAAAAACCACAAAAAAAAAAAAAAAAAAAAAAAAAAAAAAAAAAAAAAAAAAAAAAAgAAAAABAAAABAAAAAAAAAAAAAAAAAAAAAAAAAAAAAAAAAAAAAAAAAAAAA

$$$$

 OpenBabel04131118512D

 13 12  0  0  0  0  0  0  0  0999 V2000
    7.3155    0.0000    0.0000 O   0  0  0  0  0  0  0  0  0  0  0  0
    5.9881    0.0000    0.0000 N   0  0  0  0  0  0  0  0  0  0  0  0
    5.3195   -1.1577    0.0000 N   0  0  0  0  0  0  0  0  0  0  0  0
    5.9881   -2.3054    0.0000 C   0  0  0  0  0  0  0  0  0  0  0  0
    7.3155   -2.3054    0.0000 C   0  0  0  0  0  0  0  0  0  0  0  0
    7.9842   -3.4631    0.0000 C   0  0  0  0  0  0  0  0  0  0  0  0
    9.3116   -3.4631    0.0000 C   0  0  0  0  0  0  0  0  0  0  0  0
    9.9802   -4.6109    0.0000 C   0  0  0  0  0  0  0  0  0  0  0  0
    3.9921   -1.1577    0.0000 C   0  0  0  0  0  0  0  0  0  0  0  0
    3.3234   -2.3054    0.0000 C   0  0  0  0  0  0  0  0  0  0  0  0
    1.9960   -2.3054    0.0000 C   0  0  0  0  0  0  0  0  0  0  0  0
    1.3274   -3.4631    0.0000 C   0  0  0  0  0  0  0  0  0  0  0  0
    0.0000   -3.4631    0.0000 C   0  0  0  0  0  0  0  0  0  0  0  0
  1  2  2  0  0  0  0
  2  3  1  0  0  0  0
  3  4  1  0  0  0  0
  3  9  1  0  0  0  0
  4  5  1  0  0  0  0
  5  6  1  0  0  0  0
  6  7  1  0  0  0  0
  7  8  1  0  0  0  0
  9 10  1  0  0  0  0
 10 11  1  0  0  0  0
 11 12  1  0  0  0  0
 12 13  1  0  0  0  0
M  END
>  <ActivityOutcome_CPDBAS_Rat>
active

>  <cdk:Formula>
[]

>  <TD50_Rat_mmol>
0.0216

>  <net.bioclipse.cdk.fingerprint>
EAAAAAAAAgAAEAABgAABAAAAABAAAAAAAAAAAAAEAQEAYAAEAAAAAAAACAAAECAAEQAAAAAAAABAAMAAAAAAAAAAAAAAQAAAAAAAAACAAAAAACAAQAAAAAAAAAAAAABABCAAAQAIAAgAIAAQAAAAAAAAAAAAAAAAAAAAAwgA

$$$$

 OpenBabel04131118512D

  5  5  0  0  0  0  0  0  0  0999 V2000
    0.0000   -1.1519    0.0000 Cl  0  0  0  0  0  0  0  0  0  0  0  0
    1.1519   -1.8168    0.0000 C   0  0  0  0  0  0  0  0  0  0  0  0
    2.3037   -1.1519    0.0000 C   0  0  0  0  0  0  0  0  0  0  0  0
    2.9687    0.0000    0.0000 C   0  0  0  0  0  0  0  0  0  0  0  0
    3.6336   -1.1519    0.0000 O   0  0  0  0  0  0  0  0  0  0  0  0
  1  2  1  0  0  0  0
  2  3  1  0  0  0  0
  3  4  1  0  0  0  0
  3  5  1  0  0  0  0
  4  5  1  0  0  0  0
M  END
>  <ActivityOutcome_CPDBAS_Rat>
active

>  <cdk:Formula>
[]

>  <TD50_Rat_mmol>
0.032

>  <net.bioclipse.cdk.fingerprint>
AgAAAAAAAAAAAAAAAIAAAAAAAAAAAAAA4AgAAAAAAAAAAAAAECACAAACAAAAAAAAAEAAAAEAAAAIAACAACAAAAAAAAAAAAAAAAAAAAAAABAAAAAAAAAAAAAAAAAAAAAAAAAAAAAAAAAAAAAAAAAAAAAAAAAA

$$$$

 OpenBabel04131118512D

  5  5  0  0  0  0  0  0  0  0999 V2000
    0.0000   -1.1519    0.0000 C   0  0  0  0  0  0  0  0  0  0  0  0
    1.1519   -1.8168    0.0000 C   0  0  0  0  0  0  0  0  0  0  0  0
    2.3037   -1.1519    0.0000 C   0  0  0  0  0  0  0  0  0  0  0  0
    2.9687    0.0000    0.0000 C   0  0  0  0  0  0  0  0  0  0  0  0
    3.6336   -1.1519    0.0000 O   0  0  0  0  0  0  0  0  0  0  0  0
  1  2  1  0  0  0  0
  2  3  1  0  0  0  0
  3  4  1  0  0  0  0
  3  5  1  0  0  0  0
  4  5  1  0  0  0  0
M  END
>  <ActivityOutcome_CPDBAS_Rat>
active

>  <cdk:Formula>
[]

>  <TD50_Rat_mmol>
3.05

>  <net.bioclipse.cdk.fingerprint>
AgAAAAAAAAAAAAAAAIAAAAAAAAAAAAAAYAAAAAAAAAAAAAAAECACAAAAAAAAAAAAAEAAAAAAAAAAAAAAAAAAAAAAAAAAAAAAAAAAAEAAABAAAAAAAAAAAAAAAAAAAAAAAAAQAAAAAAAAAAAQAAAAAAAAAAAA

$$$$

 OpenBabel04131118512D

 22 25  0  0  0  0  0  0  0  0999 V2000
    6.9859   -1.7358    0.0000 C   0  0  1  0  0  0  0  0  0  0  0  0
    6.9859   -3.0776    0.0000 C   0  0  0  0  0  0  0  0  0  0  0  0
    5.8145   -3.7485    0.0000 C   0  0  0  0  0  0  0  0  0  0  0  0
    4.6644   -3.0883    0.0000 C   0  0  0  0  0  0  0  0  0  0  0  0
    3.5036   -3.7698    0.0000 C   0  0  0  0  0  0  0  0  0  0  0  0
    8.2425   -1.3099    0.0000 C   0  0  2  0  0  0  0  0  0  0  0  0
    3.5036   -5.1116    0.0000 C   0  0  0  0  0  0  0  0  0  0  0  0
    9.5736   -1.3737    0.0000 C   0  0  0  0  0  0  0  0  0  0  0  0
    5.8145   -1.0756    0.0000 C   0  0  0  0  0  0  0  0  0  0  0  0
    4.6644   -1.7358    0.0000 C   0  0  0  0  0  0  0  0  0  0  0  0
    8.2425   -3.4929    0.0000 C   0  0  0  0  0  0  0  0  0  0  0  0
    5.8145   -5.1116    0.0000 C   0  0  0  0  0  0  0  0  0  0  0  0
   10.6492   -1.3737    0.0000 C   0  0  0  0  0  0  0  0  0  0  0  0
    2.3428   -3.0989    0.0000 C   0  0  0  0  0  0  0  0  0  0  0  0
    4.6644   -5.7719    0.0000 C   0  0  0  0  0  0  0  0  0  0  0  0
    9.0305   -2.3961    0.0000 C   0  0  0  0  0  0  0  0  0  0  0  0
    2.3428   -5.7719    0.0000 C   0  0  0  0  0  0  0  0  0  0  0  0
    1.1927   -5.1010    0.0000 C   0  0  0  0  0  0  0  0  0  0  0  0
    8.4342    0.0000    0.0000 O   0  0  0  0  0  0  0  0  0  0  0  0
    1.1927   -3.7698    0.0000 C   0  0  0  0  0  0  0  0  0  0  0  0
    6.9859   -0.3940    0.0000 C   0  0  0  0  0  0  0  0  0  0  0  0
    0.0000   -5.7612    0.0000 O   0  0  0  0  0  0  0  0  0  0  0  0
  1  2  1  0  0  0  0
  1  6  1  0  0  0  0
  1  9  1  0  0  0  0
  1 21  1  1  0  0  0
  2  3  1  0  0  0  0
  2 11  1  0  0  0  0
  3 12  1  0  0  0  0
  3  4  1  0  0  0  0
  4 10  1  0  0  0  0
  4  5  1  0  0  0  0
  5  7  1  0  0  0  0
  5 14  2  0  0  0  0
  6  8  1  6  0  0  0
  6 16  1  0  0  0  0
  6 19  1  1  0  0  0
  7 17  2  0  0  0  0
  7 15  1  0  0  0  0
  8 13  3  0  0  0  0
  9 10  1  0  0  0  0
 11 16  1  0  0  0  0
 12 15  1  0  0  0  0
 14 20  1  0  0  0  0
 17 18  1  0  0  0  0
 18 20  2  0  0  0  0
 18 22  1  0  0  0  0
M  END
>  <ActivityOutcome_CPDBAS_Rat>
active

>  <cdk:Formula>
[]

>  <TD50_Rat_mmol>
0.000675

>  <net.bioclipse.cdk.fingerprint>
IAAAAAAAAACSAQAEAACIAgAAAAAAQAAAAgAAgAgIAQJhAEACgIEAAAAgKAAUIRAhIAQgAABAACAAQEABABAECAAAAAAABAAAAGIAAYAAEAACiACAAAiAEAQACIgAIABKAEBgcgACAAADQBAEAAAAHACADBAEAAAAAAAAAAA=

$$$$

 OpenBabel04131118512D

 10  9  0  0  0  0  0  0  0  0999 V2000
    3.9924    0.0000    0.0000 N   0  0  0  0  0  0  0  0  0  0  0  0
    4.6578   -1.1511    0.0000 C   0  0  1  0  0  0  0  0  0  0  0  0
    3.9924   -2.3023    0.0000 C   0  0  0  0  0  0  0  0  0  0  0  0
    2.6616   -2.3023    0.0000 C   0  0  0  0  0  0  0  0  0  0  0  0
    1.9962   -1.1511    0.0000 S   0  0  0  0  0  0  0  0  0  0  0  0
    0.6654   -1.1511    0.0000 C   0  0  0  0  0  0  0  0  0  0  0  0
    0.0000    0.0000    0.0000 C   0  0  0  0  0  0  0  0  0  0  0  0
    5.9885   -1.1511    0.0000 C   0  0  0  0  0  0  0  0  0  0  0  0
    6.6539    0.0000    0.0000 O   0  0  0  0  0  0  0  0  0  0  0  0
    6.6539   -2.3023    0.0000 O   0  0  0  0  0  0  0  0  0  0  0  0
  2  1  1  6  0  0  0
  2  3  1  0  0  0  0
  2  8  1  0  0  0  0
  3  4  1  0  0  0  0
  4  5  1  0  0  0  0
  5  6  1  0  0  0  0
  6  7  1  0  0  0  0
  8  9  2  0  0  0  0
  8 10  1  0  0  0  0
M  END
>  <ActivityOutcome_CPDBAS_Rat>
active

>  <cdk:Formula>
[]

>  <TD50_Rat_mmol>
0.0304

>  <net.bioclipse.cdk.fingerprint>
AIICAQACAAEAAAAAAAAAAAQAAAAAAAAAIAAAAAFgAAAABAAAAAAIAAAYIAAAAAAAAAAAAAAgQAAAAAAAgAAAAAQAAAAAQAAAAAAAAAAAgAAIAAACEAAAAABAAABAAAABQAAAAAAAgBAAAYAgAAAAUBAAAAAAAAACABA=

$$$$

 OpenBabel04131118512D

 10  9  0  0  0  0  0  0  0  0999 V2000
    3.9924    0.0000    0.0000 N   0  0  0  0  0  0  0  0  0  0  0  0
    4.6578   -1.1511    0.0000 C   0  0  0  0  0  0  0  0  0  0  0  0
    3.9924   -2.3023    0.0000 C   0  0  0  0  0  0  0  0  0  0  0  0
    2.6616   -2.3023    0.0000 C   0  0  0  0  0  0  0  0  0  0  0  0
    1.9962   -1.1511    0.0000 S   0  0  0  0  0  0  0  0  0  0  0  0
    0.6654   -1.1511    0.0000 C   0  0  0  0  0  0  0  0  0  0  0  0
    0.0000    0.0000    0.0000 C   0  0  0  0  0  0  0  0  0  0  0  0
    5.9885   -1.1511    0.0000 C   0  0  0  0  0  0  0  0  0  0  0  0
    6.6539    0.0000    0.0000 O   0  0  0  0  0  0  0  0  0  0  0  0
    6.6539   -2.3023    0.0000 O   0  0  0  0  0  0  0  0  0  0  0  0
  1  2  1  0  0  0  0
  2  3  1  0  0  0  0
  2  8  1  0  0  0  0
  3  4  1  0  0  0  0
  4  5  1  0  0  0  0
  5  6  1  0  0  0  0
  6  7  1  0  0  0  0
  8  9  2  0  0  0  0
  8 10  1  0  0  0  0
M  END
>  <ActivityOutcome_CPDBAS_Rat>
active

>  <cdk:Formula>
[]

>  <TD50_Rat_mmol>
0.0598

>  <net.bioclipse.cdk.fingerprint>
AIICAQACAAEAAAAAAAAAAAQAAAAAAAAAIAAAAAFgAAAABAAAAAAIAAAYIAAAAAAAAAAAAAAgQAAAAAAAgAAAAAQAAAAAQAAAAAAAAAAAgAAIAAACEAAAAABAAABAAAABQAAAAAAAgBAAAYAgAAAAUBAAAAAAAAACABA=

$$$$

 OpenBabel04131118512D

 13 13  0  0  0  0  0  0  0  0999 V2000
    8.0390   -0.6982    0.0000 C   0  0  0  0  0  0  0  0  0  0  0  0
    6.8998    0.0000    0.0000 N   0  0  0  0  0  0  0  0  0  0  0  0
    8.0390   -2.0304    0.0000 O   0  0  0  0  0  0  0  0  0  0  0  0
    9.1874    0.0000    0.0000 N   0  0  0  0  0  0  0  0  0  0  0  0
    5.7330   -0.6891    0.0000 C   0  0  0  0  0  0  0  0  0  0  0  0
    3.4545   -2.0304    0.0000 C   0  0  0  0  0  0  0  0  0  0  0  0
    4.5937   -0.0276    0.0000 C   0  0  0  0  0  0  0  0  0  0  0  0
    5.7330   -2.0304    0.0000 C   0  0  0  0  0  0  0  0  0  0  0  0
    3.4545   -0.6891    0.0000 C   0  0  0  0  0  0  0  0  0  0  0  0
    4.5937   -2.6735    0.0000 C   0  0  0  0  0  0  0  0  0  0  0  0
    2.2877   -2.7011    0.0000 O   0  0  0  0  0  0  0  0  0  0  0  0
    1.1392   -2.0488    0.0000 C   0  0  0  0  0  0  0  0  0  0  0  0
    0.0000   -2.7195    0.0000 C   0  0  0  0  0  0  0  0  0  0  0  0
  1  2  1  0  0  0  0
  1  3  2  0  0  0  0
  1  4  1  0  0  0  0
  2  5  1  0  0  0  0
  5  7  2  0  0  0  0
  5  8  1  0  0  0  0
  6 10  1  0  0  0  0
  6 11  1  0  0  0  0
  6  9  2  0  0  0  0
  7  9  1  0  0  0  0
  8 10  2  0  0  0  0
 11 12  1  0  0  0  0
 12 13  1  0  0  0  0
M  END
>  <ActivityOutcome_CPDBAS_Rat>
active

>  <cdk:Formula>
[]

>  <TD50_Rat_mmol>
2.98

>  <net.bioclipse.cdk.fingerprint>
ICAQgEYAEAAEAAAAAAAAAECAAAEAAATAAggAQmEIAAAAAAAACAAAAQAgAgQgAIACAEAAAAiABAAAwAIQAAAAQQAAAAAEBAAAgAABAAAAAAAAAAAQAAACAAAgAEAABCAgIAAAAAIAAAAAAAACAIhAAEAAAEAAACIQAA==

$$$$

 OpenBabel04131118512D

  7  6  0  0  0  0  0  0  0  0999 V2000
    2.6592    0.0000    0.0000 O   0  0  0  0  0  0  0  0  0  0  0  0
    1.9979   -1.1550    0.0000 C   0  0  0  0  0  0  0  0  0  0  0  0
    2.6592   -2.3053    0.0000 O   0  0  0  0  0  0  0  0  0  0  0  0
    3.9912   -2.3053    0.0000 C   0  0  0  0  0  0  0  0  0  0  0  0
    4.6571   -1.1550    0.0000 C   0  0  0  0  0  0  0  0  0  0  0  0
    0.6660   -1.1550    0.0000 C   0  0  0  0  0  0  0  0  0  0  0  0
    0.0000   -2.3053    0.0000 C   0  0  0  0  0  0  0  0  0  0  0  0
  1  2  2  0  0  0  0
  2  3  1  0  0  0  0
  2  6  1  0  0  0  0
  3  4  1  0  0  0  0
  4  5  1  0  0  0  0
  6  7  2  0  0  0  0
M  END
>  <ActivityOutcome_CPDBAS_Rat>
active

>  <cdk:Formula>
[]

>  <TD50_Rat_mmol>
1.19

>  <net.bioclipse.cdk.fingerprint>
QAAAAAAAAAAAAAIAAAAAAAAAAAAAAACAEAAAgAAAAAAAAGAAgAAAAAAAAAAAAEAgAgAAABAQAAAAAAAAAAAAAAAAAAAAAAAAAAAAAAAAAAAAAAAAAAAAAAAQAAAAAAAAAEAAAAAAAAAAAAAAAAAAAQAAAABwAAAAAAAAAAAAAA==

$$$$

 OpenBabel04131118512D

  3  2  0  0  0  0  0  0  0  0999 V2000
    2.3030   -0.6656    0.0000 C   0  0  0  0  0  0  0  0  0  0  0  0
    1.1515    0.0000    0.0000 C   0  0  0  0  0  0  0  0  0  0  0  0
    0.0000   -0.6656    0.0000 O   0  0  0  0  0  0  0  0  0  0  0  0
  1  2  1  0  0  0  0
  2  3  1  0  0  0  0
M  END
>  <ActivityOutcome_CPDBAS_Rat>
active

>  <cdk:Formula>
[]

>  <TD50_Rat_mmol>
198

>  <net.bioclipse.cdk.fingerprint>
AgAAAAAAAAAAAAAAAAAAAAAAAAAAAAAAYAAAAAAAAAAAAAAAACAAAAAAAAAAAAAAAAAAAAAAAAAAAAAAAAAAAAAAAAAAAAAAAAAAAAAAABAAAAAAAAAAAAAAAAAAAAAAAAAAAAAAAAAAAAAAAAAAAAAAAAAA

$$$$

 OpenBabel04131118512D

  7  6  0  0  0  0  0  0  0  0999 V2000
    1.9956   -1.1548    0.0000 N   0  3  0  0  0  0  0  0  0  0  0  0
    3.3260   -1.1548    0.0000 N   0  0  0  0  0  0  0  0  0  0  0  0
    3.9912   -2.3043    0.0000 C   0  0  0  0  0  0  0  0  0  0  0  0
    5.3216   -2.3043    0.0000 C   0  0  0  0  0  0  0  0  0  0  0  0
    1.3304    0.0000    0.0000 C   0  0  0  0  0  0  0  0  0  0  0  0
    0.0000    0.0000    0.0000 C   0  0  0  0  0  0  0  0  0  0  0  0
    1.3304   -2.3043    0.0000 O   0  5  0  0  0  0  0  0  0  0  0  0
  1  2  2  0  0  0  0
  1  5  1  0  0  0  0
  1  7  1  0  0  0  0
  2  3  1  0  0  0  0
  3  4  1  0  0  0  0
  5  6  1  0  0  0  0
M  CHG  2   1   1   7  -1
M  END
>  <ActivityOutcome_CPDBAS_Rat>
active

>  <cdk:Formula>
[]

>  <TD50_Rat_mmol>
0.000215

>  <net.bioclipse.cdk.fingerprint>
QAAiAAAIAAAAAAAAAAAAAAAAAAAAAAAAAAAAAABgAAAAAAAAAAAAAAAAIAAAgAIAAAAgAAQAAAAgEAAAAAAAAAAAAAAAAAAAAAAAAAQAAAAAAAAAAAAAAAAAAAAAAAAAAAAAAAAAAAAAAAAAAAAAAEAAAAAQAAACAAA=

$$$$

 OpenBabel04131118512D

  6  5  0  0  0  0  0  0  0  0999 V2000
    1.1559   -3.3081    0.0000 C   0  0  0  0  0  0  0  0  0  0  0  0
    2.3117   -3.9857    0.0000 C   0  0  0  0  0  0  0  0  0  0  0  0
    1.1559   -1.9729    0.0000 N   0  3  0  0  0  0  0  0  0  0  0  0
    0.0000   -1.3153    0.0000 N   0  0  0  0  0  0  0  0  0  0  0  0
    2.3117   -1.3153    0.0000 O   0  5  0  0  0  0  0  0  0  0  0  0
    0.0000    0.0000    0.0000 C   0  0  0  0  0  0  0  0  0  0  0  0
  1  2  1  0  0  0  0
  1  3  1  0  0  0  0
  3  4  2  0  0  0  0
  3  5  1  0  0  0  0
  4  6  1  0  0  0  0
M  CHG  2   3   1   5  -1
M  END
>  <ActivityOutcome_CPDBAS_Rat>
active

>  <cdk:Formula>
[]

>  <TD50_Rat_mmol>
0.000215

>  <net.bioclipse.cdk.fingerprint>
QAAiAAAIAAAAAAAAAAAAAAAAAAAAAAAAAAAAAABgAAAAAAAAAAAAAAAAIAAAgAIAAAAgAAQAAAAgEAAAAAAAAAAAAAAAAAAAAAAAAAAAAAAAAAAAAAAAAAAAAAAAAAAAAAAAAAAAAAAAAAAAAAAAAAAAAAAQAAACAAA=

$$$$

 OpenBabel04131118512D

  8  7  0  0  0  0  0  0  0  0999 V2000
    3.4566    0.0000    0.0000 N   0  0  0  0  0  0  0  0  0  0  0  0
    2.3044   -0.6637    0.0000 C   0  0  0  0  0  0  0  0  0  0  0  0
    1.1522    0.0000    0.0000 O   0  0  0  0  0  0  0  0  0  0  0  0
    2.3044   -1.9956    0.0000 N   0  0  0  0  0  0  0  0  0  0  0  0
    3.4566   -2.6593    0.0000 C   0  0  0  0  0  0  0  0  0  0  0  0
    4.6088   -1.9956    0.0000 C   0  0  0  0  0  0  0  0  0  0  0  0
    1.1522   -2.6593    0.0000 N   0  0  0  0  0  0  0  0  0  0  0  0
    0.0000   -1.9956    0.0000 O   0  0  0  0  0  0  0  0  0  0  0  0
  1  2  1  0  0  0  0
  2  3  2  0  0  0  0
  2  4  1  0  0  0  0
  4  5  1  0  0  0  0
  4  7  1  0  0  0  0
  5  6  1  0  0  0  0
  7  8  2  0  0  0  0
M  END
>  <ActivityOutcome_CPDBAS_Rat>
active

>  <cdk:Formula>
[]

>  <TD50_Rat_mmol>
0.0081

>  <net.bioclipse.cdk.fingerprint>
AhAASAAAgAAAAAAAAAAAAAAAAAAAAAAEBQAAYAAAAoAAAAAAAAABACAAAQAAAAAAAAAAAIAAAAKAAAAAAAAAAAAAAAAAAACAAAAAAAAAAAAAAAAAAAAAAAAARCAAAAAAAAAAAAAAAAAAAAAAAEAAAAAAAAAAAwAA

$$$$

 OpenBabel04131118512D

  8  8  0  0  0  0  0  0  0  0999 V2000
    0.0000    0.0000    0.0000 C   0  0  0  0  0  0  0  0  0  0  0  0
    0.6654   -1.1540    0.0000 C   0  0  0  0  0  0  0  0  0  0  0  0
    1.9962   -1.1540    0.0000 C   0  0  0  0  0  0  0  0  0  0  0  0
    2.6569    0.0000    0.0000 C   0  0  0  0  0  0  0  0  0  0  0  0
    3.9877    0.0000    0.0000 C   0  0  0  0  0  0  0  0  0  0  0  0
    4.6531   -1.1540    0.0000 C   0  0  0  0  0  0  0  0  0  0  0  0
    3.9877   -2.3033    0.0000 C   0  0  0  0  0  0  0  0  0  0  0  0
    2.6569   -2.3033    0.0000 C   0  0  0  0  0  0  0  0  0  0  0  0
  1  2  1  0  0  0  0
  2  3  1  0  0  0  0
  3  4  2  0  0  0  0
  3  8  1  0  0  0  0
  4  5  1  0  0  0  0
  5  6  2  0  0  0  0
  6  7  1  0  0  0  0
  7  8  2  0  0  0  0
M  END
>  <ActivityOutcome_CPDBAS_Rat>
active

>  <cdk:Formula>
[]

>  <TD50_Rat_mmol>
0.684

>  <net.bioclipse.cdk.fingerprint>
CAAAQAAAAAAAAAAAAAAAACAAAAAAAAAAQAAAAEAAAAAABAgAAAAAAAAAAAAAAAAAAAAAAAAAAAAAgAAAAACAACAAAABAIAAAAAAAAkAABAAAABQAgAAAAAAAAAAAAAAA

$$$$

 OpenBabel04131118512D

  3  3  0  0  0  0  0  0  0  0999 V2000
    0.0000   -1.1518    0.0000 C   0  0  0  0  0  0  0  0  0  0  0  0
    0.6650    0.0000    0.0000 C   0  0  0  0  0  0  0  0  0  0  0  0
    1.3300   -1.1518    0.0000 O   0  0  0  0  0  0  0  0  0  0  0  0
  1  2  1  0  0  0  0
  1  3  1  0  0  0  0
  2  3  1  0  0  0  0
M  END
>  <ActivityOutcome_CPDBAS_Rat>
active

>  <cdk:Formula>
[]

>  <TD50_Rat_mmol>
0.484

>  <net.bioclipse.cdk.fingerprint>
AgAAAAAAAAAAAAAAAIAAAAAAAAAAAAAAYAAAAAAAAAAAAAAAACAAAAAAAAAAAAAAAAAAAAAAAAAAAAAAAAAAAAAAAAAAAAAAAAAAAAAAABAAAAAAAAAAAAAAAAAAAAAAAAAAAAAAAAAAAAAAAAAAAAAAAAAA

$$$$

 OpenBabel04131118512D

  6  6  0  0  0  0  0  0  0  0999 V2000
    0.0000   -1.0738    0.0000 S   0  0  0  0  0  0  0  0  0  0  0  0
    1.3304   -1.0738    0.0000 C   0  0  0  0  0  0  0  0  0  0  0  0
    2.1104    0.0000    0.0000 N   0  0  0  0  0  0  0  0  0  0  0  0
    3.3767   -0.4086    0.0000 C   0  0  0  0  0  0  0  0  0  0  0  0
    3.3767   -1.7390    0.0000 C   0  0  0  0  0  0  0  0  0  0  0  0
    2.1104   -2.1509    0.0000 N   0  0  0  0  0  0  0  0  0  0  0  0
  1  2  2  0  0  0  0
  2  3  1  0  0  0  0
  2  6  1  0  0  0  0
  3  4  1  0  0  0  0
  4  5  1  0  0  0  0
  5  6  1  0  0  0  0
M  END
>  <ActivityOutcome_CPDBAS_Rat>
active

>  <cdk:Formula>
[]

>  <TD50_Rat_mmol>
0.0796

>  <net.bioclipse.cdk.fingerprint>
AhAAQAABAAAAAAAAAAACAAAAAAAAAAAAAAABYAAAAIAAACAAAAgAACAAAAABAAAAAAAAAIAAAAAAAAAAAAAAAAAAAAAAAACAAAAAAAAAAAAAEAAAAAAAAAAAAAAAAAAAAAAAAAAAAAAAAEAAAAAAAAAAAQAAAgAA

$$$$

 OpenBabel04131118512D

 28 28  0  0  0  0  0  0  0  0999 V2000
    7.9814   -3.4555    0.0000 O   0  0  0  0  0  0  0  0  0  0  0  0
    7.3086   -4.6023    0.0000 C   0  0  0  0  0  0  0  0  0  0  0  0
    7.9814   -5.7490    0.0000 C   0  0  0  0  0  0  0  0  0  0  0  0
    9.3116   -5.7490    0.0000 C   0  0  0  0  0  0  0  0  0  0  0  0
    9.9691   -6.9111    0.0000 C   0  0  0  0  0  0  0  0  0  0  0  0
    9.3116   -8.0578    0.0000 C   0  0  0  0  0  0  0  0  0  0  0  0
    7.9814   -8.0578    0.0000 C   0  0  0  0  0  0  0  0  0  0  0  0
    7.3086   -6.9111    0.0000 C   0  0  0  0  0  0  0  0  0  0  0  0
    9.9691   -4.6023    0.0000 C   0  0  0  0  0  0  0  0  0  0  0  0
   11.2993   -4.6023    0.0000 O   0  0  0  0  0  0  0  0  0  0  0  0
    9.3116   -3.4555    0.0000 O   0  0  0  0  0  0  0  0  0  0  0  0
    9.9691   -2.2935    0.0000 C   0  0  0  0  0  0  0  0  0  0  0  0
   11.2993   -2.2935    0.0000 C   0  0  0  0  0  0  0  0  0  0  0  0
   11.9721   -1.1467    0.0000 C   0  0  0  0  0  0  0  0  0  0  0  0
   13.3023   -1.1467    0.0000 C   0  0  0  0  0  0  0  0  0  0  0  0
   13.9598    0.0000    0.0000 C   0  0  0  0  0  0  0  0  0  0  0  0
   15.2900    0.0000    0.0000 C   0  0  0  0  0  0  0  0  0  0  0  0
   11.9721   -3.4555    0.0000 C   0  0  0  0  0  0  0  0  0  0  0  0
   13.3023   -3.4555    0.0000 C   0  0  0  0  0  0  0  0  0  0  0  0
    5.9784   -4.6023    0.0000 O   0  0  0  0  0  0  0  0  0  0  0  0
    5.3209   -3.4555    0.0000 C   0  0  0  0  0  0  0  0  0  0  0  0
    3.9907   -3.4555    0.0000 C   0  0  0  0  0  0  0  0  0  0  0  0
    3.3179   -4.6023    0.0000 C   0  0  0  0  0  0  0  0  0  0  0  0
    1.9877   -4.6023    0.0000 C   0  0  0  0  0  0  0  0  0  0  0  0
    1.3302   -5.7490    0.0000 C   0  0  0  0  0  0  0  0  0  0  0  0
    0.0000   -5.7490    0.0000 C   0  0  0  0  0  0  0  0  0  0  0  0
    3.3179   -2.2935    0.0000 C   0  0  0  0  0  0  0  0  0  0  0  0
    1.9877   -2.2935    0.0000 C   0  0  0  0  0  0  0  0  0  0  0  0
  1  2  2  0  0  0  0
  2  3  1  0  0  0  0
  2 20  1  0  0  0  0
  3  4  2  0  0  0  0
  3  8  1  0  0  0  0
  4  5  1  0  0  0  0
  4  9  1  0  0  0  0
  5  6  2  0  0  0  0
  6  7  1  0  0  0  0
  7  8  2  0  0  0  0
  9 10  2  0  0  0  0
  9 11  1  0  0  0  0
 11 12  1  0  0  0  0
 12 13  1  0  0  0  0
 13 14  1  0  0  0  0
 13 18  1  0  0  0  0
 14 15  1  0  0  0  0
 15 16  1  0  0  0  0
 16 17  1  0  0  0  0
 18 19  1  0  0  0  0
 20 21  1  0  0  0  0
 21 22  1  0  0  0  0
 22 23  1  0  0  0  0
 22 27  1  0  0  0  0
 23 24  1  0  0  0  0
 24 25  1  0  0  0  0
 25 26  1  0  0  0  0
 27 28  1  0  0  0  0
M  END
>  <ActivityOutcome_CPDBAS_Rat>
active

>  <cdk:Formula>
[]

>  <TD50_Rat_mmol>
1.83

>  <net.bioclipse.cdk.fingerprint>
AoCIAEAAAAAIAoACAAAAABABAACAAAAAwAAAAIAAAAAQAQBoAIAABAAACAMAgABQIAIgAAAAgCBAAAAQQEAAAAAMAAABAAAAAAQAAEIAAQAAAgAAIACAQACBEAAAKICAIABIQUAgBAAAEAACQRgECACAEAygUBjACAEAcAAgAAA=

$$$$

 OpenBabel04131118512D

 11 10  0  0  0  0  0  0  0  0999 V2000
    2.2999   -3.9852    0.0000 O   0  0  0  0  0  0  0  0  0  0  0  0
    2.2999   -2.6591    0.0000 C   0  0  0  0  0  0  0  0  0  0  0  0
    1.1534   -1.9891    0.0000 N   0  0  0  0  0  0  0  0  0  0  0  0
    1.1534   -0.6630    0.0000 C   0  0  0  0  0  0  0  0  0  0  0  0
    0.0000    0.0000    0.0000 C   0  0  0  0  0  0  0  0  0  0  0  0
    0.0000   -2.6591    0.0000 N   0  0  0  0  0  0  0  0  0  0  0  0
    0.0000   -3.9852    0.0000 O   0  0  0  0  0  0  0  0  0  0  0  0
    3.4534   -1.9891    0.0000 N   0  0  0  0  0  0  0  0  0  0  0  0
    4.6068   -2.6591    0.0000 C   0  0  0  0  0  0  0  0  0  0  0  0
    5.7533   -1.9891    0.0000 C   0  0  0  0  0  0  0  0  0  0  0  0
    6.9067   -2.6591    0.0000 O   0  0  0  0  0  0  0  0  0  0  0  0
  1  2  2  0  0  0  0
  2  3  1  0  0  0  0
  2  8  1  0  0  0  0
  3  4  1  0  0  0  0
  3  6  1  0  0  0  0
  4  5  1  0  0  0  0
  6  7  2  0  0  0  0
  8  9  1  0  0  0  0
  9 10  1  0  0  0  0
 10 11  1  0  0  0  0
M  END
>  <ActivityOutcome_CPDBAS_Rat>
active

>  <cdk:Formula>
[]

>  <TD50_Rat_mmol>
0.00324

>  <net.bioclipse.cdk.fingerprint>
CAAAAAIQAEoAAIAAAAAAAAAAAAAAAAAAAAAABAUAIGAAAAKAAAAAAAAAAQggIAEAAiAAoAAAAACAAAACgAAAAAAAAAEAAAAAAAAAgAAAAEAAAAAAAAAQAAAAAAAAAEQgAAAAAAAAAAAAAAAAAABAAABABAAAgAAAAAMAAA==

$$$$

 OpenBabel04131118512D

 12 11  0  0  0  0  0  0  0  0999 V2000
    2.3006   -3.9862    0.0000 O   0  0  0  0  0  0  0  0  0  0  0  0
    2.3006   -2.6598    0.0000 C   0  0  0  0  0  0  0  0  0  0  0  0
    1.1537   -1.9897    0.0000 N   0  0  0  0  0  0  0  0  0  0  0  0
    1.1537   -0.6632    0.0000 C   0  0  0  0  0  0  0  0  0  0  0  0
    0.0000    0.0000    0.0000 C   0  0  0  0  0  0  0  0  0  0  0  0
    0.0000   -2.6598    0.0000 N   0  0  0  0  0  0  0  0  0  0  0  0
    0.0000   -3.9862    0.0000 O   0  0  0  0  0  0  0  0  0  0  0  0
    3.4543   -1.9897    0.0000 N   0  0  0  0  0  0  0  0  0  0  0  0
    4.6080   -2.6598    0.0000 C   0  0  0  0  0  0  0  0  0  0  0  0
    5.7548   -1.9897    0.0000 C   0  0  0  0  0  0  0  0  0  0  0  0
    5.7548   -0.6632    0.0000 O   0  0  0  0  0  0  0  0  0  0  0  0
    6.9086   -2.6598    0.0000 C   0  0  0  0  0  0  0  0  0  0  0  0
  1  2  2  0  0  0  0
  2  3  1  0  0  0  0
  2  8  1  0  0  0  0
  3  4  1  0  0  0  0
  3  6  1  0  0  0  0
  4  5  1  0  0  0  0
  6  7  2  0  0  0  0
  8  9  1  0  0  0  0
  9 10  1  0  0  0  0
 10 11  2  0  0  0  0
 10 12  1  0  0  0  0
M  END
>  <ActivityOutcome_CPDBAS_Rat>
active

>  <cdk:Formula>
[]

>  <TD50_Rat_mmol>
0.00105

>  <net.bioclipse.cdk.fingerprint>
CAAAAAIQAEoAAYAAAAAQAAAAAAAAAAAAAAAABAUAIGAAAAKAgAAAAAAAAQEiAEEAAgAEAAAABADAAAACgAAAAAEAAAEAAAAAAAAAgAAAAAAgAAAAAAAAAAAAAAAAAEQgAAAAAAAAAAAAAAAAgABAAABQACIAAAAACAMAAA==

$$$$

 OpenBabel04131118512D

  7  6  0  0  0  0  0  0  0  0999 V2000
    3.3255    0.0000    0.0000 N   0  0  0  0  0  0  0  0  0  0  0  0
    2.6628   -1.1537    0.0000 C   0  0  0  0  0  0  0  0  0  0  0  0
    1.9961   -2.3035    0.0000 N   0  0  0  0  0  0  0  0  0  0  0  0
    2.6628   -3.4572    0.0000 C   0  0  0  0  0  0  0  0  0  0  0  0
    3.9922   -3.4572    0.0000 C   0  0  0  0  0  0  0  0  0  0  0  0
    0.6667   -2.3035    0.0000 N   0  0  0  0  0  0  0  0  0  0  0  0
    0.0000   -1.1537    0.0000 O   0  0  0  0  0  0  0  0  0  0  0  0
  1  2  3  0  0  0  0
  2  3  1  0  0  0  0
  3  4  1  0  0  0  0
  3  6  1  0  0  0  0
  4  5  1  0  0  0  0
  6  7  2  0  0  0  0
M  END
>  <ActivityOutcome_CPDBAS_Rat>
active

>  <cdk:Formula>
[]

>  <TD50_Rat_mmol>
0.0371

>  <net.bioclipse.cdk.fingerprint>
AgAABAAAgAAAAAAAAAAAAAAAAAAgAIAEAQAAYAAAAAAAAAAAAAAAACAAAQAAAAAAAAAAAIAAAAAAAAAAAAAAAAAAAAAAAACAAAAAAAAAAAAAAAAAAAAAAAAABCAAAAAAAAAAAAAAAAAAAAAAAAAAIgAAAAAAAwAA

$$$$

 OpenBabel04131118512D

 22 24  0  0  0  0  0  0  0  0999 V2000
    4.0564    0.0000    0.0000 N   0  0  0  0  0  0  0  0  0  0  0  0
    2.9389   -0.6511    0.0000 C   0  0  0  0  0  0  0  0  0  0  0  0
    3.2029   -1.9182    0.0000 N   0  0  0  0  0  0  0  0  0  0  0  0
    4.4964   -2.0502    0.0000 N   0  0  0  0  0  0  0  0  0  0  0  0
    5.0244   -0.8711    0.0000 C   0  0  0  0  0  0  0  0  0  0  0  0
    5.3411   -3.5109    0.0000 C   0  0  0  0  0  0  0  0  0  0  0  0
    4.4964   -4.9716    0.0000 C   0  0  0  0  0  0  0  0  0  0  0  0
    5.6227   -5.6227    0.0000 C   0  0  0  0  0  0  0  0  0  0  0  0
    6.7490   -4.9716    0.0000 N   0  0  0  0  0  0  0  0  0  0  0  0
    6.8810   -3.6869    0.0000 N   0  0  0  0  0  0  0  0  0  0  0  0
    8.1481   -3.4141    0.0000 C   0  0  0  0  0  0  0  0  0  0  0  0
    8.7992   -4.5404    0.0000 N   0  0  0  0  0  0  0  0  0  0  0  0
    7.9281   -5.4995    0.0000 C   0  0  0  0  0  0  0  0  0  0  0  0
    3.3701   -4.3292    0.0000 C   0  0  0  0  0  0  0  0  0  0  0  0
    2.2526   -4.9716    0.0000 C   0  0  0  0  0  0  0  0  0  0  0  0
    1.1263   -4.3292    0.0000 C   0  0  0  0  0  0  0  0  0  0  0  0
    1.1263   -3.0269    0.0000 C   0  0  0  0  0  0  0  0  0  0  0  0
    2.2526   -2.3758    0.0000 C   0  0  0  0  0  0  0  0  0  0  0  0
    3.3701   -3.0269    0.0000 C   0  0  0  0  0  0  0  0  0  0  0  0
    0.0000   -2.3758    0.0000 F   0  0  0  0  0  0  0  0  0  0  0  0
    2.2526   -6.2738    0.0000 F   0  0  0  0  0  0  0  0  0  0  0  0
    3.8453   -6.0979    0.0000 O   0  0  0  0  0  0  0  0  0  0  0  0
  1  2  1  0  0  0  0
  1  5  2  0  0  0  0
  2  3  2  0  0  0  0
  3  4  1  0  0  0  0
  4  5  1  0  0  0  0
  4  6  1  0  0  0  0
  6  7  1  0  0  0  0
  7  8  1  0  0  0  0
  7 14  1  0  0  0  0
  7 22  1  0  0  0  0
  8  9  1  0  0  0  0
  9 10  1  0  0  0  0
  9 13  1  0  0  0  0
 10 11  2  0  0  0  0
 11 12  1  0  0  0  0
 12 13  2  0  0  0  0
 14 15  2  0  0  0  0
 14 19  1  0  0  0  0
 15 16  1  0  0  0  0
 15 21  1  0  0  0  0
 16 17  2  0  0  0  0
 17 18  1  0  0  0  0
 17 20  1  0  0  0  0
 18 19  2  0  0  0  0
M  END
>  <ActivityOutcome_CPDBAS_Rat>
active

>  <cdk:Formula>
[]

>  <TD50_Rat_mmol>
0.263

>  <net.bioclipse.cdk.fingerprint>
AY4giArAIgAAFgAhAJAAIAAAAAIAEACAUFCJiBAAqABA/BACAQBkwQAAAgBACCGAAIICAEAgQAAQAUAEAAAABKyEACAFAABAAgFEAGAAAEAYEiAQgIVggBGCAACAQCAIAABAYAQQFAACA3gABMgggBQAgACABAABEAAAAiwA

$$$$

 OpenBabel04131118512D

 20 22  0  0  0  0  0  0  0  0999 V2000
    0.1772    0.0000    0.0000 O   0  0  0  0  0  0  0  0  0  0  0  0
    1.3289   -0.6694    0.0000 C   0  0  0  0  0  0  0  0  0  0  0  0
    2.4807    0.0000    0.0000 N   0  0  0  0  0  0  0  0  0  0  0  0
    3.6324   -0.6694    0.0000 C   0  0  0  0  0  0  0  0  0  0  0  0
    3.6324   -1.9983    0.0000 C   0  0  0  0  0  0  0  0  0  0  0  0
    4.7842   -2.6579    0.0000 C   0  0  0  0  0  0  0  0  0  0  0  0
    5.9359   -1.9983    0.0000 C   0  0  0  0  0  0  0  0  0  0  0  0
    7.1959   -2.4118    0.0000 C   0  0  0  0  0  0  0  0  0  0  0  0
    7.9834   -1.3289    0.0000 C   0  0  0  0  0  0  0  0  0  0  0  0
    9.3025   -1.4667    0.0000 C   0  0  0  0  0  0  0  0  0  0  0  0
    9.8439   -2.6874    0.0000 C   0  0  0  0  0  0  0  0  0  0  0  0
    9.0663   -3.7604    0.0000 C   0  0  0  0  0  0  0  0  0  0  0  0
    7.7373   -3.6226    0.0000 C   0  0  0  0  0  0  0  0  0  0  0  0
    7.1959   -0.2559    0.0000 C   0  0  0  0  0  0  0  0  0  0  0  0
    5.9359   -0.6694    0.0000 C   0  0  0  0  0  0  0  0  0  0  0  0
    4.7842    0.0000    0.0000 C   0  0  0  0  0  0  0  0  0  0  0  0
    1.3289   -1.9983    0.0000 C   0  0  0  0  0  0  0  0  0  0  0  0
    2.6579   -1.9983    0.0000 F   0  0  0  0  0  0  0  0  0  0  0  0
    1.3289   -3.3272    0.0000 F   0  0  0  0  0  0  0  0  0  0  0  0
    0.0000   -1.9983    0.0000 F   0  0  0  0  0  0  0  0  0  0  0  0
  1  2  2  0  0  0  0
  2  3  1  0  0  0  0
  2 17  1  0  0  0  0
  3  4  1  0  0  0  0
  4  5  1  0  0  0  0
  4 16  2  0  0  0  0
  5  6  2  0  0  0  0
  6  7  1  0  0  0  0
  7  8  1  0  0  0  0
  7 15  2  0  0  0  0
  8  9  1  0  0  0  0
  8 13  2  0  0  0  0
  9 10  2  0  0  0  0
  9 14  1  0  0  0  0
 10 11  1  0  0  0  0
 11 12  2  0  0  0  0
 12 13  1  0  0  0  0
 14 15  1  0  0  0  0
 15 16  1  0  0  0  0
 17 18  1  0  0  0  0
 17 19  1  0  0  0  0
 17 20  1  0  0  0  0
M  END
>  <ActivityOutcome_CPDBAS_Rat>
active

>  <cdk:Formula>
[]

>  <TD50_Rat_mmol>
0.00584

>  <net.bioclipse.cdk.fingerprint>
AIQAAAApICIFAAAEgSgBMAkAoAIQQEFBAAAAAgzAAzgAAGEgQRAAIIAAAAYAAoCgAAQAAgCGAEABAATBFAkAwAUIwACAAUAAAAAARIAg0AgAEADABIAAAIggAgAIgAAgQEkAQCAAQAAAQAJgAQ0BCAQUCoDQAsEQiAgEAAIQAA==

$$$$

 OpenBabel04131118512D

 17 18  0  0  0  0  0  0  0  0999 V2000
    0.0000   -1.1522    0.0000 C   0  0  0  0  0  0  0  0  0  0  0  0
    1.3329   -1.1522    0.0000 C   0  0  0  0  0  0  0  0  0  0  0  0
    1.9881   -2.3044    0.0000 N   0  0  0  0  0  0  0  0  0  0  0  0
    3.3210   -2.3044    0.0000 C   0  0  0  0  0  0  0  0  0  0  0  0
    3.9874   -1.1522    0.0000 C   0  0  0  0  0  0  0  0  0  0  0  0
    5.3203   -1.1522    0.0000 C   0  0  0  0  0  0  0  0  0  0  0  0
    5.9755   -2.3044    0.0000 C   0  0  0  0  0  0  0  0  0  0  0  0
    7.3084   -2.3044    0.0000 C   0  0  0  0  0  0  0  0  0  0  0  0
    7.9749   -1.1522    0.0000 C   0  0  0  0  0  0  0  0  0  0  0  0
    9.3078   -1.1522    0.0000 C   0  0  0  0  0  0  0  0  0  0  0  0
    9.9629   -2.3044    0.0000 C   0  0  0  0  0  0  0  0  0  0  0  0
   11.2959   -2.3044    0.0000 F   0  0  0  0  0  0  0  0  0  0  0  0
    9.3078   -3.4565    0.0000 C   0  0  0  0  0  0  0  0  0  0  0  0
    7.9749   -3.4565    0.0000 C   0  0  0  0  0  0  0  0  0  0  0  0
    5.3203   -3.4565    0.0000 C   0  0  0  0  0  0  0  0  0  0  0  0
    3.9874   -3.4565    0.0000 C   0  0  0  0  0  0  0  0  0  0  0  0
    1.9881    0.0000    0.0000 O   0  0  0  0  0  0  0  0  0  0  0  0
  1  2  1  0  0  0  0
  2  3  1  0  0  0  0
  2 17  2  0  0  0  0
  3  4  1  0  0  0  0
  4  5  2  0  0  0  0
  4 16  1  0  0  0  0
  5  6  1  0  0  0  0
  6  7  2  0  0  0  0
  7  8  1  0  0  0  0
  7 15  1  0  0  0  0
  8  9  2  0  0  0  0
  8 14  1  0  0  0  0
  9 10  1  0  0  0  0
 10 11  2  0  0  0  0
 11 12  1  0  0  0  0
 11 13  1  0  0  0  0
 13 14  2  0  0  0  0
 15 16  2  0  0  0  0
M  END
>  <ActivityOutcome_CPDBAS_Rat>
active

>  <cdk:Formula>
[]

>  <TD50_Rat_mmol>
0.00441

>  <net.bioclipse.cdk.fingerprint>
ISAiBAAgAAAIAAAAAAAAEABBQQAAAAIEwAMgAABgEAABACAAAAAAAACAoIAEAAAABgBAAACAgAQIAMAEAAAAAAEAAAAAAASAINAAAAAAAAACAACAAAAAAIAAIABAAEAgAAAAAEACQAEAAAgAAAiA0ADAEIgIAAACEAA=

$$$$

 OpenBabel04131118512D

  9  8  0  0  0  0  0  0  0  0999 V2000
    1.1520    0.0000    0.0000 O   0  0  0  0  0  0  0  0  0  0  0  0
    2.3040   -0.6635    0.0000 C   0  0  0  0  0  0  0  0  0  0  0  0
    2.3040   -1.9953    0.0000 N   0  0  0  0  0  0  0  0  0  0  0  0
    3.4560   -2.6588    0.0000 C   0  0  0  0  0  0  0  0  0  0  0  0
    4.6080   -1.9953    0.0000 C   0  0  0  0  0  0  0  0  0  0  0  0
    4.6080   -0.6635    0.0000 F   0  0  0  0  0  0  0  0  0  0  0  0
    1.1520   -2.6588    0.0000 N   0  0  0  0  0  0  0  0  0  0  0  0
    0.0000   -1.9953    0.0000 O   0  0  0  0  0  0  0  0  0  0  0  0
    3.4560    0.0000    0.0000 N   0  0  0  0  0  0  0  0  0  0  0  0
  1  2  2  0  0  0  0
  2  3  1  0  0  0  0
  2  9  1  0  0  0  0
  3  4  1  0  0  0  0
  3  7  1  0  0  0  0
  4  5  1  0  0  0  0
  5  6  1  0  0  0  0
  7  8  2  0  0  0  0
M  END
>  <ActivityOutcome_CPDBAS_Rat>
active

>  <cdk:Formula>
[]

>  <TD50_Rat_mmol>
0.000925

>  <net.bioclipse.cdk.fingerprint>
AhAASAABgAAAAAAAABAAAAAAAAAAAAAEJQAAYAAAAoAgAAAAAAABACAAQQACAAAAAAAAAIAQAAKAAAAAAAAAAAAAAAAAAACAAAAAAAAAAAAAAAAAAAAAAAAARCAAAAAIAAAAAAAAAAAAAAAAAEAAAAAAAAAAAwAA

$$$$

 OpenBabel04131118512D

 30 32  0  0  0  0  0  0  0  0999 V2000
    0.0000   -1.1558    0.0000 O   0  0  0  0  0  0  0  0  0  0  0  0
    1.3319   -1.1558    0.0000 C   0  0  0  0  0  0  0  0  0  0  0  0
    1.9924   -2.3006    0.0000 C   0  0  0  0  0  0  0  0  0  0  0  0
    3.3244   -2.3006    0.0000 C   0  0  1  0  0  0  0  0  0  0  0  0
    3.9848   -3.4565    0.0000 C   0  0  0  0  0  0  0  0  0  0  0  0
    5.3168   -3.4565    0.0000 C   0  0  1  0  0  0  0  0  0  0  0  0
    5.9883   -4.6013    0.0000 C   0  0  0  0  0  0  0  0  0  0  0  0
    5.3168   -5.7571    0.0000 C   0  0  0  0  0  0  0  0  0  0  0  0
    5.9883   -6.9129    0.0000 C   0  0  0  0  0  0  0  0  0  0  0  0
    5.4379   -8.1238    0.0000 C   0  0  0  0  0  0  0  0  0  0  0  0
    6.4286   -9.0154    0.0000 C   0  0  0  0  0  0  0  0  0  0  0  0
    7.5844   -8.3439    0.0000 C   0  0  0  0  0  0  0  0  0  0  0  0
    7.3092   -7.0450    0.0000 N   0  0  0  0  0  0  0  0  0  0  0  0
    8.2008   -6.0653    0.0000 C   0  0  0  0  0  0  0  0  0  0  0  0
    9.4998   -6.3405    0.0000 C   0  0  0  0  0  0  0  0  0  0  0  0
    7.7825   -4.7994    0.0000 C   0  0  0  0  0  0  0  0  0  0  0  0
    8.7292   -9.0154    0.0000 C   0  0  0  0  0  0  0  0  0  0  0  0
    8.7292  -10.3474    0.0000 C   0  0  0  0  0  0  0  0  0  0  0  0
    7.5844  -11.0078    0.0000 C   0  0  0  0  0  0  0  0  0  0  0  0
    6.4286  -10.3474    0.0000 C   0  0  0  0  0  0  0  0  0  0  0  0
    4.1390   -8.3990    0.0000 C   0  0  0  0  0  0  0  0  0  0  0  0
    3.7317   -9.6649    0.0000 C   0  0  0  0  0  0  0  0  0  0  0  0
    2.4327   -9.9401    0.0000 C   0  0  0  0  0  0  0  0  0  0  0  0
    1.5411   -8.9494    0.0000 C   0  0  0  0  0  0  0  0  0  0  0  0
    1.9484   -7.6835    0.0000 C   0  0  0  0  0  0  0  0  0  0  0  0
    3.2473   -7.4083    0.0000 C   0  0  0  0  0  0  0  0  0  0  0  0
    0.2422   -9.2246    0.0000 F   0  0  0  0  0  0  0  0  0  0  0  0
    5.9883   -2.3006    0.0000 O   0  0  0  0  0  0  0  0  0  0  0  0
    3.9848   -1.1558    0.0000 O   0  0  0  0  0  0  0  0  0  0  0  0
    1.9924    0.0000    0.0000 O   0  0  0  0  0  0  0  0  0  0  0  0
  1  2  2  0  0  0  0
  2  3  1  0  0  0  0
  2 30  1  0  0  0  0
  3  4  1  0  0  0  0
  4  5  1  0  0  0  0
  4 29  1  6  0  0  0
  5  6  1  0  0  0  0
  6  7  1  0  0  0  0
  6 28  1  6  0  0  0
  7  8  2  0  0  0  0
  8  9  1  0  0  0  0
  9 10  2  0  0  0  0
  9 13  1  0  0  0  0
 10 11  1  0  0  0  0
 10 21  1  0  0  0  0
 11 12  2  0  0  0  0
 11 20  1  0  0  0  0
 12 13  1  0  0  0  0
 12 17  1  0  0  0  0
 13 14  1  0  0  0  0
 14 15  1  0  0  0  0
 14 16  1  0  0  0  0
 17 18  2  0  0  0  0
 18 19  1  0  0  0  0
 19 20  2  0  0  0  0
 21 22  2  0  0  0  0
 21 26  1  0  0  0  0
 22 23  1  0  0  0  0
 23 24  2  0  0  0  0
 24 25  1  0  0  0  0
 24 27  1  0  0  0  0
 25 26  2  0  0  0  0
M  END
>  <ActivityOutcome_CPDBAS_Rat>
active

>  <cdk:Formula>
[]

>  <TD50_Rat_mmol>
0.304

>  <net.bioclipse.cdk.fingerprint>
QBADGZECwQKkhH4SQCIIgkAIAgAEAMBQQAEQAgoIRDsJGXAQQlkEoAgABJkkyphhgCsAGRAUAEEwEaJQ+CwQI4UCQoQQhBCBCSAgghAwQFWIMCCgAIoYgYgwAAgmiAIgWsCDxSBIgwQBcAJhFQiJwQYQLIDQOAIQCAhiBhKoZA==

$$$$

 OpenBabel04131118512D

  2  1  0  0  0  0  0  0  0  0999 V2000
    0.0000    0.0000    0.0000 C   0  0  0  0  0  0  0  0  0  0  0  0
    1.3300    0.0000    0.0000 O   0  0  0  0  0  0  0  0  0  0  0  0
  1  2  2  0  0  0  0
M  END
>  <ActivityOutcome_CPDBAS_Rat>
active

>  <cdk:Formula>
[]

>  <TD50_Rat_mmol>
0.045

>  <net.bioclipse.cdk.fingerprint>
YAAAAAAAAAAAAAAAAAAAAAAAAAAAAAAAAAAAAAAAAAAAAAAAAAAAAAAAAAAAAAAAAAAAAAAAAAAAAAAAAAAAQAAAAAAAAAAAAAAAAAAAAAAAAAAAAAAAAAAAAAAA

$$$$

 OpenBabel04131118512D

 10 10  0  0  0  0  0  0  0  0999 V2000
    1.3215   -1.5417    0.0000 C   0  0  0  0  0  0  0  0  0  0  0  0
    0.0000   -1.6862    0.0000 C   0  0  0  0  0  0  0  0  0  0  0  0
    1.9891   -0.3923    0.0000 C   0  0  0  0  0  0  0  0  0  0  0  0
    3.2899   -0.6676    0.0000 S   0  0  0  0  0  0  0  0  0  0  0  0
    3.4275   -1.9891    0.0000 C   0  0  0  0  0  0  0  0  0  0  0  0
    2.2093   -2.5328    0.0000 N   0  0  0  0  0  0  0  0  0  0  0  0
    4.5769   -2.6567    0.0000 N   0  0  0  0  0  0  0  0  0  0  0  0
    5.7332   -1.9891    0.0000 N   0  0  0  0  0  0  0  0  0  0  0  0
    5.7332   -0.6607    0.0000 C   0  0  0  0  0  0  0  0  0  0  0  0
    6.8826    0.0000    0.0000 O   0  0  0  0  0  0  0  0  0  0  0  0
  1  2  1  0  0  0  0
  1  3  2  0  0  0  0
  1  6  1  0  0  0  0
  3  4  1  0  0  0  0
  4  5  1  0  0  0  0
  5  6  2  0  0  0  0
  5  7  1  0  0  0  0
  7  8  1  0  0  0  0
  8  9  1  0  0  0  0
  9 10  2  0  0  0  0
M  END
>  <ActivityOutcome_CPDBAS_Rat>
active

>  <cdk:Formula>
[]

>  <TD50_Rat_mmol>
0.0916

>  <net.bioclipse.cdk.fingerprint>
QgIAgAIFQACAAAAAhAABiAAAMAEAAAAAAAAEAEBAAAABYAAAAABAAAEAAgAAACBAQAAAAAAAQoKIAAAACAIBCAIABARAAAEAAhAAAAAAQAAAAAADAABBAAAgAICIAAAAQCIBAAAAwAAwgAAAAAIAAABAAEEAAAABAAAAAwQA

$$$$

 OpenBabel04131118512D

 17 18  0  0  0  0  0  0  0  0999 V2000
   11.3714   -1.9900    0.0000 O   0  5  0  0  0  0  0  0  0  0  0  0
   10.2229   -1.3304    0.0000 N   0  3  0  0  0  0  0  0  0  0  0  0
   10.2229    0.0000    0.0000 O   0  0  0  0  0  0  0  0  0  0  0  0
    9.0743   -1.9900    0.0000 C   0  0  0  0  0  0  0  0  0  0  0  0
    8.9265   -3.3204    0.0000 C   0  0  0  0  0  0  0  0  0  0  0  0
    7.6302   -3.5933    0.0000 C   0  0  0  0  0  0  0  0  0  0  0  0
    6.9706   -2.4448    0.0000 C   0  0  0  0  0  0  0  0  0  0  0  0
    7.8576   -1.4555    0.0000 O   0  0  0  0  0  0  0  0  0  0  0  0
    5.6402   -2.3084    0.0000 C   0  0  0  0  0  0  0  0  0  0  0  0
    4.7532   -3.2863    0.0000 C   0  0  0  0  0  0  0  0  0  0  0  0
    3.5365   -2.7519    0.0000 S   0  0  0  0  0  0  0  0  0  0  0  0
    3.6729   -1.4328    0.0000 C   0  0  0  0  0  0  0  0  0  0  0  0
    4.9807   -1.1485    0.0000 N   0  0  0  0  0  0  0  0  0  0  0  0
    2.6950   -0.5345    0.0000 N   0  0  0  0  0  0  0  0  0  0  0  0
    1.4442   -1.0121    0.0000 N   0  0  0  0  0  0  0  0  0  0  0  0
    1.2395   -2.3311    0.0000 C   0  0  0  0  0  0  0  0  0  0  0  0
    0.0000   -2.8087    0.0000 O   0  0  0  0  0  0  0  0  0  0  0  0
  1  2  1  0  0  0  0
  2  3  2  0  0  0  0
  2  4  1  0  0  0  0
  4  5  2  0  0  0  0
  4  8  1  0  0  0  0
  5  6  1  0  0  0  0
  6  7  2  0  0  0  0
  7  8  1  0  0  0  0
  7  9  1  0  0  0  0
  9 10  2  0  0  0  0
  9 13  1  0  0  0  0
 10 11  1  0  0  0  0
 11 12  1  0  0  0  0
 12 13  2  0  0  0  0
 12 14  1  0  0  0  0
 14 15  1  0  0  0  0
 15 16  1  0  0  0  0
 16 17  2  0  0  0  0
M  CHG  2   1  -1   2   1
M  END
>  <ActivityOutcome_CPDBAS_Rat>
active

>  <cdk:Formula>
[]

>  <TD50_Rat_mmol>
0.0199

>  <net.bioclipse.cdk.fingerprint>
CABGB/jCQydgAJAIBZCUAAHKoKKwkRDBEAGAQQQsQEaAAJFkgAYABEAYlQACYQAApEBBAAIABAZCgogAAAapAgFMAgJUBEASA1ACkEAsiEBQNQIFkAMECMWgBKAgiIgEYAFUIhUgpQD4oHKAQLCaAggAwEECwQIAAAkMggIDBIU=

$$$$

 OpenBabel04131118512D

 50 49  0  0  0  0  0  0  0  0999 V2000
    8.0884   -2.0100    0.0000 C   0  0  2  0  0  0  0  0  0  0  0  0
    9.2266   -2.6639    0.0000 C   0  0  2  0  0  0  0  0  0  0  0  0
    6.9260   -2.6639    0.0000 O   0  0  0  0  0  0  0  0  0  0  0  0
    8.0884   -0.6781    0.0000 C   0  0  2  0  0  0  0  0  0  0  0  0
    9.2266   -3.9958    0.0000 O   0  0  0  0  0  0  0  0  0  0  0  0
   10.3891   -2.0100    0.0000 C   0  0  0  0  0  0  0  0  0  0  0  0
    5.7636   -2.0100    0.0000 C   0  0  0  0  0  0  0  0  0  0  0  0
    9.2266    0.0000    0.0000 C   0  0  0  0  0  0  0  0  0  0  0  0
    6.9260    0.0000    0.0000 C   0  0  0  0  0  0  0  0  0  0  0  0
    8.0884   -4.6739    0.0000 C   0  0  0  0  0  0  0  0  0  0  0  0
   11.5515   -2.6639    0.0000 C   0  0  1  0  0  0  0  0  0  0  0  0
    4.6012   -2.6639    0.0000 C   0  0  0  0  0  0  0  0  0  0  0  0
    5.7636   -0.6781    0.0000 O   0  0  0  0  0  0  0  0  0  0  0  0
   10.3891   -0.6781    0.0000 C   0  0  0  0  0  0  0  0  0  0  0  0
    6.9260   -3.9958    0.0000 C   0  0  0  0  0  0  0  0  0  0  0  0
    8.0884   -6.0058    0.0000 O   0  0  0  0  0  0  0  0  0  0  0  0
   12.6897   -2.0100    0.0000 C   0  0  0  0  0  0  0  0  0  0  0  0
   11.5515   -3.9958    0.0000 C   0  0  0  0  0  0  0  0  0  0  0  0
    3.4630   -2.0100    0.0000 C   0  0  2  0  0  0  0  0  0  0  0  0
   11.5515    0.0000    0.0000 C   0  0  0  0  0  0  0  0  0  0  0  0
    5.7636   -4.6739    0.0000 C   0  0  2  0  0  0  0  0  0  0  0  0
   13.8279   -2.6639    0.0000 C   0  0  2  0  0  0  0  0  0  0  0  0
    2.3248   -2.6639    0.0000 C   0  0  0  0  0  0  0  0  0  0  0  0
    3.4630   -0.6781    0.0000 C   0  0  0  0  0  0  0  0  0  0  0  0
   12.6897   -0.6781    0.0000 C   0  0  0  0  0  0  0  0  0  0  0  0
    4.6012   -3.9958    0.0000 C   0  0  0  0  0  0  0  0  0  0  0  0
    5.7636   -6.0058    0.0000 C   0  0  0  0  0  0  0  0  0  0  0  0
   14.9903   -2.0100    0.0000 C   0  0  0  0  0  0  0  0  0  0  0  0
   13.8279   -3.9958    0.0000 O   0  0  0  0  0  0  0  0  0  0  0  0
    1.1624   -2.0100    0.0000 C   0  0  0  0  0  0  0  0  0  0  0  0
    4.6012    0.0000    0.0000 O   0  0  0  0  0  0  0  0  0  0  0  0
    2.3248    0.0000    0.0000 O   0  0  0  0  0  0  0  0  0  0  0  0
    3.4630   -4.6739    0.0000 C   0  0  0  0  0  0  0  0  0  0  0  0
    4.6012   -6.6597    0.0000 O   0  0  0  0  0  0  0  0  0  0  0  0
    6.9260   -6.6597    0.0000 O   0  0  0  0  0  0  0  0  0  0  0  0
   16.1527   -2.6639    0.0000 C   0  0  0  0  0  0  0  0  0  0  0  0
    1.1624   -0.6781    0.0000 O   0  0  0  0  0  0  0  0  0  0  0  0
    0.0000   -2.6639    0.0000 O   0  0  0  0  0  0  0  0  0  0  0  0
    2.3248   -3.9958    0.0000 O   0  0  0  0  0  0  0  0  0  0  0  0
    3.4630   -6.0058    0.0000 O   0  0  0  0  0  0  0  0  0  0  0  0
   17.3151   -2.0100    0.0000 C   0  0  0  0  0  0  0  0  0  0  0  0
   18.4533   -2.6639    0.0000 C   0  0  0  0  0  0  0  0  0  0  0  0
   19.6157   -2.0100    0.0000 C   0  0  2  0  0  0  0  0  0  0  0  0
   20.7539   -2.6639    0.0000 C   0  0  0  0  0  0  0  0  0  0  0  0
   19.6157   -0.6781    0.0000 O   0  0  0  0  0  0  0  0  0  0  0  0
   21.9163   -2.0100    0.0000 C   0  0  1  0  0  0  0  0  0  0  0  0
   23.0545   -2.6639    0.0000 C   0  0  2  0  0  0  0  0  0  0  0  0
   21.9163   -0.6781    0.0000 O   0  0  0  0  0  0  0  0  0  0  0  0
   24.2169   -2.0100    0.0000 C   0  0  0  0  0  0  0  0  0  0  0  0
   23.0545   -3.9958    0.0000 N   0  0  0  0  0  0  0  0  0  0  0  0
  1  2  1  0  0  0  0
  1  3  1  6  0  0  0
  1  4  1  0  0  0  0
  2  5  1  1  0  0  0
  2  6  1  0  0  0  0
  3  7  1  0  0  0  0
  4  8  1  0  0  0  0
  4  9  1  1  0  0  0
  5 10  1  0  0  0  0
  6 11  1  0  0  0  0
  7 12  1  0  0  0  0
  7 13  2  0  0  0  0
  8 14  1  0  0  0  0
 10 15  1  0  0  0  0
 10 16  2  0  0  0  0
 11 17  1  0  0  0  0
 11 18  1  1  0  0  0
 12 19  1  0  0  0  0
 14 20  1  0  0  0  0
 15 21  1  0  0  0  0
 17 22  1  0  0  0  0
 19 23  1  0  0  0  0
 19 24  1  6  0  0  0
 20 25  1  0  0  0  0
 21 26  1  0  0  0  0
 21 27  1  1  0  0  0
 22 28  1  0  0  0  0
 22 29  1  6  0  0  0
 23 30  1  0  0  0  0
 24 31  1  0  0  0  0
 24 32  2  0  0  0  0
 26 33  1  0  0  0  0
 27 34  1  0  0  0  0
 27 35  2  0  0  0  0
 28 36  1  0  0  0  0
 30 37  1  0  0  0  0
 30 38  2  0  0  0  0
 33 39  1  0  0  0  0
 33 40  2  0  0  0  0
 36 41  1  0  0  0  0
 41 42  1  0  0  0  0
 42 43  1  0  0  0  0
 43 44  1  0  0  0  0
 43 45  1  1  0  0  0
 44 46  1  0  0  0  0
 46 47  1  0  0  0  0
 46 48  1  6  0  0  0
 47 49  1  0  0  0  0
 47 50  1  6  0  0  0
M  END
>  <ActivityOutcome_CPDBAS_Rat>
active

>  <cdk:Formula>
[]

>  <TD50_Rat_mmol>
0.00208

>  <net.bioclipse.cdk.fingerprint>
IICEAAAAAAAKAAACBUEEAhA0AAAICAEAwIAADYAAAAAVAQBgQIACAAAgAAEhAABYIAIiAACAAABBAAAoQGAAAAAAAAAAAgHAAAQAAEAAEQAAAAAAACCAQAAhEAAAAEAgAABIAQQBQAAAIAgAABAAAQAAAAABWDCAAAAAAAICAAA=

$$$$

 OpenBabel04131118512D

  5  5  0  0  0  0  0  0  0  0999 V2000
    1.7409    0.0000    0.0000 C   0  0  0  0  0  0  0  0  0  0  0  0
    2.1519   -1.2653    0.0000 C   0  0  0  0  0  0  0  0  0  0  0  0
    1.0760   -2.0465    0.0000 O   0  0  0  0  0  0  0  0  0  0  0  0
    0.0000   -1.2653    0.0000 C   0  0  0  0  0  0  0  0  0  0  0  0
    0.4110    0.0000    0.0000 C   0  0  0  0  0  0  0  0  0  0  0  0
  1  2  2  0  0  0  0
  1  5  1  0  0  0  0
  2  3  1  0  0  0  0
  3  4  1  0  0  0  0
  4  5  2  0  0  0  0
M  END
>  <ActivityOutcome_CPDBAS_Rat>
active

>  <cdk:Formula>
[]

>  <TD50_Rat_mmol>
0.00582

>  <net.bioclipse.cdk.fingerprint>
IAAAAAAAAIAAAAIgAAAAAAAAAAAAAAAAAAAAAGAAAAAAAAAAAAAAAAAAAAAAAAAAAEAAAAAAAAAAAAAAAAAAAAAAAAAAAAAAAAAAAgAAAAQAAAAAAAAAAAAgAEAAECAAAAAAAAAAAAAAAAAAAAAAAAAAAAAAAAAAAA==

$$$$

 OpenBabel04131118512D

  7  7  0  0  0  0  0  0  0  0999 V2000
    0.0000   -1.5998    0.0000 O   0  0  0  0  0  0  0  0  0  0  0  0
    1.1503   -2.2653    0.0000 C   0  0  0  0  0  0  0  0  0  0  0  0
    2.3050   -1.5998    0.0000 C   0  0  0  0  0  0  0  0  0  0  0  0
    2.4416   -0.2777    0.0000 C   0  0  0  0  0  0  0  0  0  0  0  0
    3.7417    0.0000    0.0000 C   0  0  0  0  0  0  0  0  0  0  0  0
    4.4072   -1.1547    0.0000 C   0  0  0  0  0  0  0  0  0  0  0  0
    3.5169   -2.1419    0.0000 O   0  0  0  0  0  0  0  0  0  0  0  0
  1  2  2  0  0  0  0
  2  3  1  0  0  0  0
  3  4  2  0  0  0  0
  3  7  1  0  0  0  0
  4  5  1  0  0  0  0
  5  6  2  0  0  0  0
  6  7  1  0  0  0  0
M  END
>  <ActivityOutcome_CPDBAS_Rat>
active

>  <cdk:Formula>
[]

>  <TD50_Rat_mmol>
7.11

>  <net.bioclipse.cdk.fingerprint>
ASAACRAAAACAAAACIAAAAAAAAAAAAAAAAAAAAABoAAAABAAQAABAAAAAIAAAAAAAAABAAAAAAAAAAAAAAAAAAAAAAAAAAAAEAAAAIAIAAAAEAACAAAAAAIAAIABAABAgAAAAAAAAQAAAAAAAAAAAkABEAAAAAAAAAAA=

$$$$

 OpenBabel04131118512D

  7  7  0  0  0  0  0  0  0  0999 V2000
    3.5169   -2.1419    0.0000 C   0  0  0  0  0  0  0  0  0  0  0  0
    2.3050   -1.5998    0.0000 C   0  0  0  0  0  0  0  0  0  0  0  0
    1.1503   -2.2653    0.0000 C   0  0  0  0  0  0  0  0  0  0  0  0
    0.0000   -1.5998    0.0000 O   0  0  0  0  0  0  0  0  0  0  0  0
    2.4416   -0.2777    0.0000 O   0  0  0  0  0  0  0  0  0  0  0  0
    3.7417    0.0000    0.0000 C   0  0  0  0  0  0  0  0  0  0  0  0
    4.4072   -1.1547    0.0000 C   0  0  0  0  0  0  0  0  0  0  0  0
  1  2  2  0  0  0  0
  1  7  1  0  0  0  0
  2  3  1  0  0  0  0
  2  5  1  0  0  0  0
  3  4  1  0  0  0  0
  5  6  1  0  0  0  0
  6  7  2  0  0  0  0
M  END
>  <ActivityOutcome_CPDBAS_Rat>
active

>  <cdk:Formula>
[]

>  <TD50_Rat_mmol>
0.0979

>  <net.bioclipse.cdk.fingerprint>
ASAAABACAACAAAACIgAAAAACBAAAAAAAAAAAAEBgAAAAAAAQAAAAAAAAIAAAAAAAACBAAAAAAAAAAAAAAAAAAAAAAAAAAgAEAAAAAAIAAAAEAACAEAAAAIAAIABAABAgBAAAAAAAQAAAAACAAAAAgAAAAAAAAAAAAAA=

$$$$

 OpenBabel04131118512D

 18 18  0  0  0  0  0  0  0  0999 V2000
    4.6120   -1.6414    0.0000 C   0  0  0  0  0  0  0  0  0  0  0  0
    3.4641   -2.3060    0.0000 C   0  0  0  0  0  0  0  0  0  0  0  0
    3.4641   -3.6352    0.0000 C   0  0  0  0  0  0  0  0  0  0  0  0
    2.3060   -4.2999    0.0000 C   0  0  0  0  0  0  0  0  0  0  0  0
    1.1580   -3.6352    0.0000 C   0  0  0  0  0  0  0  0  0  0  0  0
    1.1580   -2.3060    0.0000 C   0  0  0  0  0  0  0  0  0  0  0  0
    2.3060   -1.6414    0.0000 C   0  0  0  0  0  0  0  0  0  0  0  0
    0.0000   -4.2999    0.0000 C   0  0  0  0  0  0  0  0  0  0  0  0
    4.6120   -4.2999    0.0000 O   0  0  0  0  0  0  0  0  0  0  0  0
    5.7701   -3.6352    0.0000 C   0  0  0  0  0  0  0  0  0  0  0  0
    5.7701   -2.3060    0.0000 C   0  0  0  0  0  0  0  0  0  0  0  0
    6.9180   -1.6414    0.0000 C   0  0  0  0  0  0  0  0  0  0  0  0
    8.0761   -2.3060    0.0000 C   0  0  0  0  0  0  0  0  0  0  0  0
    8.7407   -1.1480    0.0000 C   0  0  0  0  0  0  0  0  0  0  0  0
    8.0761    0.0000    0.0000 O   0  0  0  0  0  0  0  0  0  0  0  0
   10.0699   -1.1480    0.0000 O   0  0  0  0  0  0  0  0  0  0  0  0
    9.2240   -2.9706    0.0000 C   0  0  0  0  0  0  0  0  0  0  0  0
    7.4115   -3.4540    0.0000 C   0  0  0  0  0  0  0  0  0  0  0  0
  1  2  1  0  0  0  0
  2  3  2  0  0  0  0
  2  7  1  0  0  0  0
  3  4  1  0  0  0  0
  3  9  1  0  0  0  0
  4  5  2  0  0  0  0
  5  6  1  0  0  0  0
  5  8  1  0  0  0  0
  6  7  2  0  0  0  0
  9 10  1  0  0  0  0
 10 11  1  0  0  0  0
 11 12  1  0  0  0  0
 12 13  1  0  0  0  0
 13 14  1  0  0  0  0
 13 17  1  0  0  0  0
 13 18  1  0  0  0  0
 14 15  2  0  0  0  0
 14 16  1  0  0  0  0
M  END
>  <ActivityOutcome_CPDBAS_Rat>
active

>  <cdk:Formula>
[]

>  <TD50_Rat_mmol>
0.987

>  <net.bioclipse.cdk.fingerprint>
CAACABAABAAAQAAAAAAAgAAEAAAAAAFBCQJhAAAAgIAAAAgBAAAQIAIgKACAAABAEARoQCAAAgAWEAAAAAABAARiBGAAAIABAQBAAAAAQACgEAAAQIAAKABAAEAgICAAAAACQBAAAQAAAACAUBAAAAEAAAIgAAA=

$$$$

 OpenBabel04131118512D

 15 17  0  0  0  0  0  0  0  0999 V2000
    4.7238   -0.2510    0.0000 N   0  0  0  0  0  0  0  0  0  0  0  0
    3.4535   -0.6618    0.0000 C   0  0  0  0  0  0  0  0  0  0  0  0
    3.4535   -1.9930    0.0000 C   0  0  0  0  0  0  0  0  0  0  0  0
    4.7238   -2.4037    0.0000 N   0  0  0  0  0  0  0  0  0  0  0  0
    5.4997   -1.3312    0.0000 C   0  0  0  0  0  0  0  0  0  0  0  0
    6.8232   -1.4681    0.0000 C   0  0  0  0  0  0  0  0  0  0  0  0
    7.3633   -2.6852    0.0000 C   0  0  0  0  0  0  0  0  0  0  0  0
    6.5874   -3.7577    0.0000 C   0  0  0  0  0  0  0  0  0  0  0  0
    5.2639   -3.6208    0.0000 C   0  0  0  0  0  0  0  0  0  0  0  0
    7.6067   -0.3879    0.0000 C   0  0  0  0  0  0  0  0  0  0  0  0
    2.3048   -2.6547    0.0000 N   0  0  0  0  0  0  0  0  0  0  0  0
    1.1486   -1.9930    0.0000 C   0  0  0  0  0  0  0  0  0  0  0  0
    1.1486   -0.6618    0.0000 C   0  0  0  0  0  0  0  0  0  0  0  0
    2.3048    0.0000    0.0000 C   0  0  0  0  0  0  0  0  0  0  0  0
    0.0000   -2.6547    0.0000 N   0  0  0  0  0  0  0  0  0  0  0  0
  1  2  1  0  0  0  0
  1  5  2  0  0  0  0
  2  3  2  0  0  0  0
  2 14  1  0  0  0  0
  3  4  1  0  0  0  0
  3 11  1  0  0  0  0
  4  5  1  0  0  0  0
  4  9  1  0  0  0  0
  5  6  1  0  0  0  0
  6  7  2  0  0  0  0
  6 10  1  0  0  0  0
  7  8  1  0  0  0  0
  8  9  2  0  0  0  0
 11 12  2  0  0  0  0
 12 13  1  0  0  0  0
 12 15  1  0  0  0  0
 13 14  2  0  0  0  0
M  END
>  <ActivityOutcome_CPDBAS_Rat>
active

>  <cdk:Formula>
[]

>  <TD50_Rat_mmol>
0.0237

>  <net.bioclipse.cdk.fingerprint>
QAACAZEjBiBIkiwCBgUAAABAQCGEAEAQAAIQAQQIAgAIAOQAAAAsAIAAAgAAIAggAAgAKAAEAEIgAAACAAQCgQAAADABICAAaUEMhEAAAgSEAAGAAQAQIKAgCiACwACgYIARACCAkUEEgARTAAEAAAQAEIIIQAAAAAAAAAKgQg==

$$$$

 OpenBabel04131118512D

 14 16  0  0  0  0  0  0  0  0999 V2000
    2.6438   -2.4008    0.0000 N   0  0  0  0  0  0  0  0  0  0  0  0
    3.9104   -1.9884    0.0000 C   0  0  0  0  0  0  0  0  0  0  0  0
    3.9104   -0.6628    0.0000 C   0  0  0  0  0  0  0  0  0  0  0  0
    5.0593    0.0000    0.0000 C   0  0  0  0  0  0  0  0  0  0  0  0
    6.2154   -0.6628    0.0000 C   0  0  0  0  0  0  0  0  0  0  0  0
    6.2154   -1.9884    0.0000 C   0  0  0  0  0  0  0  0  0  0  0  0
    5.0593   -2.6585    0.0000 N   0  0  0  0  0  0  0  0  0  0  0  0
    7.3643   -2.6585    0.0000 N   0  0  0  0  0  0  0  0  0  0  0  0
    2.6438   -0.2504    0.0000 N   0  0  0  0  0  0  0  0  0  0  0  0
    1.8632   -1.3256    0.0000 C   0  0  0  0  0  0  0  0  0  0  0  0
    0.5376   -1.4655    0.0000 C   0  0  0  0  0  0  0  0  0  0  0  0
    0.0000   -2.6806    0.0000 C   0  0  0  0  0  0  0  0  0  0  0  0
    0.7806   -3.7558    0.0000 C   0  0  0  0  0  0  0  0  0  0  0  0
    2.1062   -3.6159    0.0000 C   0  0  0  0  0  0  0  0  0  0  0  0
  1  2  1  0  0  0  0
  1 10  1  0  0  0  0
  1 14  1  0  0  0  0
  2  3  2  0  0  0  0
  2  7  1  0  0  0  0
  3  4  1  0  0  0  0
  3  9  1  0  0  0  0
  4  5  2  0  0  0  0
  5  6  1  0  0  0  0
  6  7  2  0  0  0  0
  6  8  1  0  0  0  0
  9 10  2  0  0  0  0
 10 11  1  0  0  0  0
 11 12  2  0  0  0  0
 12 13  1  0  0  0  0
 13 14  2  0  0  0  0
M  END
>  <ActivityOutcome_CPDBAS_Rat>
active

>  <cdk:Formula>
[]

>  <TD50_Rat_mmol>
0.23

>  <net.bioclipse.cdk.fingerprint>
QAACAZEjBCBIEiwCBgQAAAAAQCCEAEAQAAIAAQQIAgAIAOQAAAAsAIAAAgAAIAggAAAAKAAEAEIgAAACAAQAgQAAABABICAAYAEMAEAAAASEAAGAAQAQICAgAgACQACgYAARACCAkUEEgAQTAAEAAAQAEIIIQAAAAAAAAAKAQg==

$$$$

 OpenBabel04131118512D

  5  5  0  0  0  0  0  0  0  0999 V2000
    0.0000   -1.1519    0.0000 O   0  0  0  0  0  0  0  0  0  0  0  0
    1.1519   -1.8168    0.0000 C   0  0  0  0  0  0  0  0  0  0  0  0
    2.3037   -1.1519    0.0000 C   0  0  0  0  0  0  0  0  0  0  0  0
    2.9687    0.0000    0.0000 C   0  0  0  0  0  0  0  0  0  0  0  0
    3.6336   -1.1519    0.0000 O   0  0  0  0  0  0  0  0  0  0  0  0
  1  2  1  0  0  0  0
  2  3  1  0  0  0  0
  3  4  1  0  0  0  0
  3  5  1  0  0  0  0
  4  5  1  0  0  0  0
M  END
>  <ActivityOutcome_CPDBAS_Rat>
active

>  <cdk:Formula>
[]

>  <TD50_Rat_mmol>
0.0578

>  <net.bioclipse.cdk.fingerprint>
AgAAAAAAAAAAAAAAAIAAAAAAAAAAAAAAYAAAAAAAAAAAAAAAGCACAAAAAAAAAAAAAEAAAAAAAAAAAAAAAAAAAAAAAAAAAAAAAAAAAAAAABAAAABAAAAAAAAAAAAAAAAAAAAAAAAAAAAAAAAgAAAAAAAAAAAA

$$$$

 OpenBabel04131118512D

  5  4  0  0  0  0  0  0  0  0999 V2000
    2.3124   -1.3174    0.0000 C   0  0  0  0  0  0  0  0  0  0  0  0
    2.3124    0.0000    0.0000 O   0  0  0  0  0  0  0  0  0  0  0  0
    3.4669   -1.9900    0.0000 O   0  0  0  0  0  0  0  0  0  0  0  0
    0.0000   -1.3001    0.0000 N   0  0  0  0  0  0  0  0  0  0  0  0
    1.1718   -1.9726    0.0000 C   0  0  0  0  0  0  0  0  0  0  0  0
  1  2  2  0  0  0  0
  1  3  1  0  0  0  0
  1  5  1  0  0  0  0
  4  5  1  0  0  0  0
M  END
>  <ActivityOutcome_CPDBAS_Rat>
active

>  <cdk:Formula>
[]

>  <TD50_Rat_mmol>
342

>  <net.bioclipse.cdk.fingerprint>
AgAAAgAAAAAAAAAAAAAAAAAAAAAAAAAAAAAAYAAAAAAAAAAAAAAACCAAAAAAAAAAAAAAAAAAAAAAAAAAAAAAAAAAAAAAAAAAAAAAAAAAAAAAABAAAAAAAAAAQAAAAAAAAAAAAAAAAACAAAAAAFAAAAAAAAAAAgAA

$$$$

 OpenBabel04131118512D

 22 25  0  0  0  0  0  0  0  0999 V2000
    5.2178   -5.4270    0.0000 O   0  0  0  0  0  0  0  0  0  0  0  0
    5.2975   -4.3615    0.0000 C   0  0  1  0  0  0  0  0  0  0  0  0
    5.2975   -3.0172    0.0000 C   0  0  0  0  0  0  0  0  0  0  0  0
    4.0130   -2.5990    0.0000 C   0  0  0  0  0  0  0  0  0  0  0  0
    3.4653   -1.3742    0.0000 C   0  0  0  0  0  0  0  0  0  0  0  0
    2.1309   -1.2248    0.0000 C   0  0  0  0  0  0  0  0  0  0  0  0
    1.3343   -2.3201    0.0000 C   0  0  0  0  0  0  0  0  0  0  0  0
    1.8820   -3.5449    0.0000 C   0  0  0  0  0  0  0  0  0  0  0  0
    3.2263   -3.6844    0.0000 C   0  0  0  0  0  0  0  0  0  0  0  0
    4.0130   -4.7797    0.0000 C   0  0  0  0  0  0  0  0  0  0  0  0
    0.0000   -2.1807    0.0000 O   0  0  0  0  0  0  0  0  0  0  0  0
    1.5833    0.0000    0.0000 O   0  0  0  0  0  0  0  0  0  0  0  0
    6.4626   -2.3401    0.0000 C   0  0  0  0  0  0  0  0  0  0  0  0
    7.6276   -3.0172    0.0000 C   0  0  0  0  0  0  0  0  0  0  0  0
    8.7927   -2.3401    0.0000 C   0  0  0  0  0  0  0  0  0  0  0  0
    8.7927   -0.9958    0.0000 C   0  0  0  0  0  0  0  0  0  0  0  0
    7.6276   -0.3286    0.0000 C   0  0  0  0  0  0  0  0  0  0  0  0
    6.4626   -0.9958    0.0000 C   0  0  0  0  0  0  0  0  0  0  0  0
    9.9577   -0.3286    0.0000 O   0  0  0  0  0  0  0  0  0  0  0  0
    9.9577   -3.0172    0.0000 O   0  0  0  0  0  0  0  0  0  0  0  0
    7.6276   -4.3615    0.0000 O   0  0  0  0  0  0  0  0  0  0  0  0
    6.4626   -5.0386    0.0000 C   0  0  0  0  0  0  0  0  0  0  0  0
  2  1  1  6  0  0  0
  2  3  1  0  0  0  0
  2 10  1  0  0  0  0
  2 22  1  0  0  0  0
  3  4  1  0  0  0  0
  3 13  1  0  0  0  0
  4  5  2  0  0  0  0
  4  9  1  0  0  0  0
  5  6  1  0  0  0  0
  6  7  2  0  0  0  0
  6 12  1  0  0  0  0
  7  8  1  0  0  0  0
  7 11  1  0  0  0  0
  8  9  2  0  0  0  0
  9 10  1  0  0  0  0
 13 14  2  0  0  0  0
 13 18  1  0  0  0  0
 14 15  1  0  0  0  0
 14 21  1  0  0  0  0
 15 16  2  0  0  0  0
 15 20  1  0  0  0  0
 16 17  1  0  0  0  0
 16 19  1  0  0  0  0
 17 18  2  0  0  0  0
 21 22  1  0  0  0  0
M  END
>  <ActivityOutcome_CPDBAS_Rat>
active

>  <cdk:Formula>
[]

>  <TD50_Rat_mmol>
3.31

>  <net.bioclipse.cdk.fingerprint>
BAAAAAQAEAEAAwKSALgCRBAJCDAIAAAA4AQEAAIAAAluCQJhAdBCgcsAAEhCMAAYIAIEKACACgBEAaYIQEAFUgQPGAUAhBBDDoAgZGMAZoAIEQBAwACEUIGAEAQoCsAMICAKAECgICADHCAGSDAEEKAIHECGCBBHAzEgBAAyQgA=

$$$$

 OpenBabel04131118512D

 12 12  0  0  0  0  0  0  0  0999 V2000
    0.0000   -2.3036    0.0000 Cl  0  0  0  0  0  0  0  0  0  0  0  0
    1.3300   -2.3036    0.0000 C   0  0  0  0  0  0  0  0  0  0  0  0
    1.9950   -1.1491    0.0000 C   0  0  0  0  0  0  0  0  0  0  0  0
    3.3250   -1.1491    0.0000 C   0  0  0  0  0  0  0  0  0  0  0  0
    3.9901   -2.3036    0.0000 C   0  0  0  0  0  0  0  0  0  0  0  0
    3.3250   -3.4581    0.0000 C   0  0  0  0  0  0  0  0  0  0  0  0
    1.9950   -3.4581    0.0000 C   0  0  0  0  0  0  0  0  0  0  0  0
    1.3300   -4.6072    0.0000 Cl  0  0  0  0  0  0  0  0  0  0  0  0
    3.9901   -4.6072    0.0000 Cl  0  0  0  0  0  0  0  0  0  0  0  0
    5.3201   -2.3036    0.0000 Cl  0  0  0  0  0  0  0  0  0  0  0  0
    3.9901    0.0000    0.0000 Cl  0  0  0  0  0  0  0  0  0  0  0  0
    1.3300    0.0000    0.0000 Cl  0  0  0  0  0  0  0  0  0  0  0  0
  1  2  1  0  0  0  0
  2  3  2  0  0  0  0
  2  7  1  0  0  0  0
  3  4  1  0  0  0  0
  3 12  1  0  0  0  0
  4  5  2  0  0  0  0
  4 11  1  0  0  0  0
  5  6  1  0  0  0  0
  5 10  1  0  0  0  0
  6  7  2  0  0  0  0
  6  9  1  0  0  0  0
  7  8  1  0  0  0  0
M  END
>  <ActivityOutcome_CPDBAS_Rat>
active

>  <cdk:Formula>
[]

>  <TD50_Rat_mmol>
0.0136

>  <net.bioclipse.cdk.fingerprint>
CAAAAAAAAAAAAAgAAAAAAAAAAAAAAAAAAAAAAAAAAAAAAMAAAAAAAAAAAAAAAAAgAAAAAAAAAEBAAAAAAAABAAAAAAAAAAAAAAAAAAAAAAAEAAAAAAAAAQEAAAAAAAAgAAAAgCAEAAAAAEIAAAAAAAAAAIAAAAAAAAAAAAAAAA==

$$$$

 OpenBabel04131118512D

 10  9  0  0  0  0  0  0  0  0999 V2000
    2.3047    0.0000    0.0000 Cl  0  0  0  0  0  0  0  0  0  0  0  0
    2.3047   -1.3309    0.0000 C   0  0  0  0  0  0  0  0  0  0  0  0
    1.1523   -1.9935    0.0000 C   0  0  0  0  0  0  0  0  0  0  0  0
    1.1523   -3.3245    0.0000 Cl  0  0  0  0  0  0  0  0  0  0  0  0
    0.0000   -1.3309    0.0000 Cl  0  0  0  0  0  0  0  0  0  0  0  0
    3.4570   -1.9935    0.0000 C   0  0  0  0  0  0  0  0  0  0  0  0
    4.6093   -1.3309    0.0000 C   0  0  0  0  0  0  0  0  0  0  0  0
    5.7617   -1.9935    0.0000 Cl  0  0  0  0  0  0  0  0  0  0  0  0
    4.6093    0.0000    0.0000 Cl  0  0  0  0  0  0  0  0  0  0  0  0
    3.4570   -3.3245    0.0000 Cl  0  0  0  0  0  0  0  0  0  0  0  0
  1  2  1  0  0  0  0
  2  3  2  0  0  0  0
  2  6  1  0  0  0  0
  3  4  1  0  0  0  0
  3  5  1  0  0  0  0
  6  7  2  0  0  0  0
  6 10  1  0  0  0  0
  7  8  1  0  0  0  0
  7  9  1  0  0  0  0
M  END
>  <ActivityOutcome_CPDBAS_Rat>
active

>  <cdk:Formula>
[]

>  <TD50_Rat_mmol>
0.252

>  <net.bioclipse.cdk.fingerprint>
QAAAAAAAAAAAAAAAAAAAAAAAAAAAAAAAAAAEAIAAAAAAAMAAAAAAAAAAAAAAAAAgAAAABgAQAAAAQAAAAAABAAAABAAAAAAAAAAAAAAAAAAAAADAAAAAAAAAAAAAAAAAAAAAAAAAAAAAAAAAAABAAAAgAAAAAAIAAAAAAAAAAA==

$$$$

 OpenBabel04131118512D

 12 12  0  0  0  0  0  0  0  0999 V2000
    3.6345    3.5001    0.0000 C   0  0  1  0  0  0  0  0  0  0  0  0
    3.6345    2.1001    0.0000 C   0  0  1  0  0  0  0  0  0  0  0  0
    2.4305    4.2002    0.0000 C   0  0  1  0  0  0  0  0  0  0  0  0
    2.4305    1.4001    0.0000 C   0  0  2  0  0  0  0  0  0  0  0  0
    1.2208    3.5001    0.0000 C   0  0  2  0  0  0  0  0  0  0  0  0
    1.2208    2.1001    0.0000 C   0  0  1  0  0  0  0  0  0  0  0  0
    0.0000    4.2002    0.0000 Cl  0  0  0  0  0  0  0  0  0  0  0  0
    2.4305    5.6002    0.0000 Cl  0  0  0  0  0  0  0  0  0  0  0  0
    4.8553    4.2002    0.0000 Cl  0  0  0  0  0  0  0  0  0  0  0  0
    4.8553    1.4001    0.0000 Cl  0  0  0  0  0  0  0  0  0  0  0  0
    2.4305    0.0000    0.0000 Cl  0  0  0  0  0  0  0  0  0  0  0  0
    0.0000    1.4001    0.0000 Cl  0  0  0  0  0  0  0  0  0  0  0  0
  1  2  1  0  0  0  0
  1  3  1  0  0  0  0
  1  9  1  1  0  0  0
  2  4  1  0  0  0  0
  2 10  1  6  0  0  0
  3  5  1  0  0  0  0
  3  8  1  1  0  0  0
  4  6  1  0  0  0  0
  4 11  1  1  0  0  0
  5  6  1  0  0  0  0
  5  7  1  6  0  0  0
  6 12  1  6  0  0  0
M  END
>  <ActivityOutcome_CPDBAS_Rat>
active

>  <cdk:Formula>
[]

>  <TD50_Rat_mmol>
0.0385

>  <net.bioclipse.cdk.fingerprint>
QAAAAAAAAAAAAQDAAAAAAAAAAAAAAAAAoAAAAAJAAAAAAAAAQAAAAQAAAYQAAIAAQgAAAAAAAAAAAAAAAAAAAAAAAAAAAAAAAAAAAAAAAAAAAAAAABAAAAAAAAAAAAAAAAAAAAAAAAA=

$$$$

 OpenBabel04131118512D

  8  7  0  0  0  0  0  0  0  0999 V2000
    0.0000   -1.3283    0.0000 Cl  0  0  0  0  0  0  0  0  0  0  0  0
    1.3283   -1.3283    0.0000 C   0  0  0  0  0  0  0  0  0  0  0  0
    1.3283   -2.6606    0.0000 C   0  0  0  0  0  0  0  0  0  0  0  0
    2.6606   -2.6606    0.0000 Cl  0  0  0  0  0  0  0  0  0  0  0  0
    1.3283   -3.9889    0.0000 Cl  0  0  0  0  0  0  0  0  0  0  0  0
    0.0000   -2.6606    0.0000 Cl  0  0  0  0  0  0  0  0  0  0  0  0
    1.3283    0.0000    0.0000 Cl  0  0  0  0  0  0  0  0  0  0  0  0
    2.6606   -1.3283    0.0000 Cl  0  0  0  0  0  0  0  0  0  0  0  0
  1  2  1  0  0  0  0
  2  3  1  0  0  0  0
  2  7  1  0  0  0  0
  2  8  1  0  0  0  0
  3  4  1  0  0  0  0
  3  5  1  0  0  0  0
  3  6  1  0  0  0  0
M  END
>  <ActivityOutcome_CPDBAS_Rat>
active

>  <cdk:Formula>
[]

>  <TD50_Rat_mmol>
0.234

>  <net.bioclipse.cdk.fingerprint>
AMAAAAAAAAAAAAAAAAAgAAAABgAAAAAAAAAAAAABAAAABAAAAAAAAAAAAAAAAAAAAAAAAAAAAAAAAAAAAAAAAAAAAAAAAAAAAAAAAAAAAAAAAAAAAAAAAAAAAAAAAA==

$$$$

 OpenBabel04131118512D

 21 21  0  0  0  0  0  0  0  0999 V2000
    3.9879   -5.7563    0.0000 N   0  0  0  0  0  0  0  0  0  0  0  0
    3.3248   -4.6050    0.0000 C   0  0  0  0  0  0  0  0  0  0  0  0
    3.9879   -3.4538    0.0000 N   0  0  0  0  0  0  0  0  0  0  0  0
    5.3142   -3.4538    0.0000 C   0  0  0  0  0  0  0  0  0  0  0  0
    5.9865   -2.3025    0.0000 N   0  0  0  0  0  0  0  0  0  0  0  0
    7.3128   -2.3025    0.0000 C   0  0  0  0  0  0  0  0  0  0  0  0
    7.9759   -1.1513    0.0000 O   0  0  0  0  0  0  0  0  0  0  0  0
    5.3142   -1.1513    0.0000 C   0  0  0  0  0  0  0  0  0  0  0  0
    5.9865    0.0000    0.0000 O   0  0  0  0  0  0  0  0  0  0  0  0
    1.9986   -4.6050    0.0000 N   0  0  0  0  0  0  0  0  0  0  0  0
    1.3262   -3.4538    0.0000 C   0  0  0  0  0  0  0  0  0  0  0  0
    0.0000   -3.4538    0.0000 O   0  0  0  0  0  0  0  0  0  0  0  0
    1.3262   -5.7563    0.0000 C   0  0  0  0  0  0  0  0  0  0  0  0
    0.0000   -5.7563    0.0000 O   0  0  0  0  0  0  0  0  0  0  0  0
    5.3142   -5.7563    0.0000 C   0  0  0  0  0  0  0  0  0  0  0  0
    5.9865   -4.6050    0.0000 N   0  0  0  0  0  0  0  0  0  0  0  0
    5.9865   -6.9075    0.0000 N   0  0  0  0  0  0  0  0  0  0  0  0
    7.3128   -6.9075    0.0000 C   0  0  0  0  0  0  0  0  0  0  0  0
    7.9759   -8.0588    0.0000 O   0  0  0  0  0  0  0  0  0  0  0  0
    5.3142   -8.0588    0.0000 C   0  0  0  0  0  0  0  0  0  0  0  0
    5.9865   -9.2100    0.0000 O   0  0  0  0  0  0  0  0  0  0  0  0
  1  2  2  0  0  0  0
  1 15  1  0  0  0  0
  2  3  1  0  0  0  0
  2 10  1  0  0  0  0
  3  4  2  0  0  0  0
  4  5  1  0  0  0  0
  4 16  1  0  0  0  0
  5  6  1  0  0  0  0
  5  8  1  0  0  0  0
  6  7  1  0  0  0  0
  8  9  1  0  0  0  0
 10 11  1  0  0  0  0
 10 13  1  0  0  0  0
 11 12  1  0  0  0  0
 13 14  1  0  0  0  0
 15 16  2  0  0  0  0
 15 17  1  0  0  0  0
 17 18  1  0  0  0  0
 17 20  1  0  0  0  0
 18 19  1  0  0  0  0
 20 21  1  0  0  0  0
M  END
>  <ActivityOutcome_CPDBAS_Rat>
active

>  <cdk:Formula>
[]

>  <TD50_Rat_mmol>
0.0333

>  <net.bioclipse.cdk.fingerprint>
AIIAgAoEAEABAgAAIQAAQAAAAAAAAAQQAAAAAAAEAAAAYAAgAAAAAAAAAAAAAAAAAQEAAIABAAIAAIAAAAAAAAAAEAAAAABAAAAAAAQAgAAAAAABAARgAAEEAAAAAAAAAAAAAAAQAAAAABAAAAAAAAAAAAAQAAAAEAAAAgAC

$$$$

 OpenBabel04131118512D

 11 10  0  0  0  0  0  0  0  0999 V2000
    1.3337   -1.9906    0.0000 P   0  0  0  0  0  0  0  0  0  0  0  0
    1.3337   -0.6569    0.0000 N   0  0  0  0  0  0  0  0  0  0  0  0
    1.3337   -3.3243    0.0000 N   0  0  0  0  0  0  0  0  0  0  0  0
    2.6634   -1.9906    0.0000 N   0  0  0  0  0  0  0  0  0  0  0  0
    0.0000   -1.9906    0.0000 O   0  0  0  0  0  0  0  0  0  0  0  0
    0.1752   -3.9812    0.0000 C   0  0  0  0  0  0  0  0  0  0  0  0
    2.4882    0.0000    0.0000 C   0  0  0  0  0  0  0  0  0  0  0  0
    2.4723   -3.9812    0.0000 C   0  0  0  0  0  0  0  0  0  0  0  0
    3.3402   -3.1610    0.0000 C   0  0  0  0  0  0  0  0  0  0  0  0
    0.1911    0.0000    0.0000 C   0  0  0  0  0  0  0  0  0  0  0  0
    3.3402   -0.8520    0.0000 C   0  0  0  0  0  0  0  0  0  0  0  0
  1  2  1  0  0  0  0
  1  3  1  0  0  0  0
  1  4  1  0  0  0  0
  1  5  2  0  0  0  0
  2  7  1  0  0  0  0
  2 10  1  0  0  0  0
  3  6  1  0  0  0  0
  3  8  1  0  0  0  0
  4  9  1  0  0  0  0
  4 11  1  0  0  0  0
M  END
>  <ActivityOutcome_CPDBAS_Rat>
active

>  <cdk:Formula>
[]

>  <TD50_Rat_mmol>
0.000192

>  <net.bioclipse.cdk.fingerprint>
AgAAAAAAAAAAAAAAAAFgAAAAAAAAAAAAAAAAAAAAAAAAAAAAAAAAgAAAAAAABAAAAAAAAAAAAACAAAAAAAAAAAAAAAAAAAAAAAAAAAAAAAAAAAQAAAAAAAQAAAAAAAAAIAAAAAAIAAADAAA=

$$$$

 OpenBabel04131118512D

 12 11  0  0  0  0  0  0  0  0999 V2000
    1.1519    0.0000    0.0000 O   0  0  0  0  0  0  0  0  0  0  0  0
    2.3039   -0.6635    0.0000 C   0  0  0  0  0  0  0  0  0  0  0  0
    2.3039   -1.9998    0.0000 N   0  0  0  0  0  0  0  0  0  0  0  0
    3.4558   -2.6633    0.0000 C   0  0  0  0  0  0  0  0  0  0  0  0
    4.6078   -1.9998    0.0000 C   0  0  0  0  0  0  0  0  0  0  0  0
    5.7597   -2.6633    0.0000 C   0  0  0  0  0  0  0  0  0  0  0  0
    6.9117   -1.9998    0.0000 C   0  0  0  0  0  0  0  0  0  0  0  0
    8.0636   -2.6633    0.0000 C   0  0  0  0  0  0  0  0  0  0  0  0
    9.2156   -1.9998    0.0000 C   0  0  0  0  0  0  0  0  0  0  0  0
    1.1519   -2.6633    0.0000 N   0  0  0  0  0  0  0  0  0  0  0  0
    0.0000   -1.9998    0.0000 O   0  0  0  0  0  0  0  0  0  0  0  0
    3.4558    0.0000    0.0000 N   0  0  0  0  0  0  0  0  0  0  0  0
  1  2  2  0  0  0  0
  2  3  1  0  0  0  0
  2 12  1  0  0  0  0
  3  4  1  0  0  0  0
  3 10  1  0  0  0  0
  4  5  1  0  0  0  0
  5  6  1  0  0  0  0
  6  7  1  0  0  0  0
  7  8  1  0  0  0  0
  8  9  1  0  0  0  0
 10 11  2  0  0  0  0
M  END
>  <ActivityOutcome_CPDBAS_Rat>
active

>  <cdk:Formula>
[]

>  <TD50_Rat_mmol>
0.00296

>  <net.bioclipse.cdk.fingerprint>
AgAAAAAAAhAASAABgAABAAAAABAAAEAAAAAAAAAEBQEAYAAAAoAAAAAAAAABECAAQQACAAAAAAAAQMAAAAKAAAAAAAAAQAAAAAAAAACAAABAACAAQAgAAAAAAAEAAABARCAAAQAIAAAIIAQQAAAgAAAAAEAAAAgAAAAACwAA

$$$$

 OpenBabel04131118512D

 14 15  0  0  0  0  0  0  0  0999 V2000
    4.3386   -1.1499    0.0000 C   0  0  0  0  0  0  0  0  0  0  0  0
    3.5559   -2.2321    0.0000 N   0  0  0  0  0  0  0  0  0  0  0  0
    2.2901   -1.8166    0.0000 C   0  0  0  0  0  0  0  0  0  0  0  0
    2.2901   -0.4831    0.0000 S   0  0  0  0  0  0  0  0  0  0  0  0
    3.5559   -0.0773    0.0000 C   0  0  0  0  0  0  0  0  0  0  0  0
    1.2175   -2.5993    0.0000 N   0  0  0  0  0  0  0  0  0  0  0  0
    0.0000   -2.0582    0.0000 N   0  0  0  0  0  0  0  0  0  0  0  0
    5.6721   -1.1499    0.0000 C   0  0  0  0  0  0  0  0  0  0  0  0
    6.3388    0.0000    0.0000 C   0  0  0  0  0  0  0  0  0  0  0  0
    7.6627    0.0000    0.0000 C   0  0  0  0  0  0  0  0  0  0  0  0
    8.3294   -1.1499    0.0000 C   0  0  0  0  0  0  0  0  0  0  0  0
    7.6627   -2.2998    0.0000 C   0  0  0  0  0  0  0  0  0  0  0  0
    6.3388   -2.2998    0.0000 C   0  0  0  0  0  0  0  0  0  0  0  0
    9.6629   -1.1499    0.0000 N   0  0  0  0  0  0  0  0  0  0  0  0
  1  2  1  0  0  0  0
  1  5  2  0  0  0  0
  1  8  1  0  0  0  0
  2  3  2  0  0  0  0
  3  4  1  0  0  0  0
  3  6  1  0  0  0  0
  4  5  1  0  0  0  0
  6  7  1  0  0  0  0
  8  9  2  0  0  0  0
  8 13  1  0  0  0  0
  9 10  1  0  0  0  0
 10 11  2  0  0  0  0
 11 12  1  0  0  0  0
 11 14  1  0  0  0  0
 12 13  2  0  0  0  0
M  END
>  <ActivityOutcome_CPDBAS_Rat>
active

>  <cdk:Formula>
[]

>  <TD50_Rat_mmol>
0.00499

>  <net.bioclipse.cdk.fingerprint>
AgaIgAIFYAAQAAEAhAABiIAgAJEAwQACAAAGDEACAACRZAAAAABBAAQAAgAAAKAAQAAAAAAAQIKAAAAAAAABTAICBAQAEAMAAAAAIAAAABAABAADIAgRoACgAICIACABECJAIIAAwIhQAkQIkAIAAABBgAEAABAICAACAxAA

$$$$

 OpenBabel04131118512D

 15 16  0  0  0  0  0  0  0  0999 V2000
    0.0000   -2.9202    0.0000 N   0  0  0  0  0  0  0  0  0  0  0  0
    0.8939   -1.9369    0.0000 N   0  0  0  0  0  0  0  0  0  0  0  0
    2.1951   -2.2150    0.0000 C   0  0  0  0  0  0  0  0  0  0  0  0
    3.1784   -1.3210    0.0000 N   0  0  0  0  0  0  0  0  0  0  0  0
    4.3306   -1.9865    0.0000 C   0  0  0  0  0  0  0  0  0  0  0  0
    4.0525   -3.2877    0.0000 C   0  0  0  0  0  0  0  0  0  0  0  0
    2.7315   -3.4268    0.0000 S   0  0  0  0  0  0  0  0  0  0  0  0
    5.5523   -1.4402    0.0000 C   0  0  0  0  0  0  0  0  0  0  0  0
    5.8304   -0.1391    0.0000 C   0  0  0  0  0  0  0  0  0  0  0  0
    7.1515    0.0000    0.0000 C   0  0  0  0  0  0  0  0  0  0  0  0
    7.6878   -1.2217    0.0000 C   0  0  0  0  0  0  0  0  0  0  0  0
    6.7045   -2.1057    0.0000 O   0  0  0  0  0  0  0  0  0  0  0  0
    8.9890   -1.4998    0.0000 N   0  3  0  0  0  0  0  0  0  0  0  0
    9.9326   -0.5562    0.0000 O   0  5  0  0  0  0  0  0  0  0  0  0
    9.3367   -2.7811    0.0000 O   0  0  0  0  0  0  0  0  0  0  0  0
  1  2  1  0  0  0  0
  2  3  1  0  0  0  0
  3  4  2  0  0  0  0
  3  7  1  0  0  0  0
  4  5  1  0  0  0  0
  5  6  2  0  0  0  0
  5  8  1  0  0  0  0
  6  7  1  0  0  0  0
  8  9  2  0  0  0  0
  8 12  1  0  0  0  0
  9 10  1  0  0  0  0
 10 11  2  0  0  0  0
 11 12  1  0  0  0  0
 11 13  1  0  0  0  0
 13 14  1  0  0  0  0
 13 15  2  0  0  0  0
M  CHG  2  13   1  14  -1
M  END
>  <ActivityOutcome_CPDBAS_Rat>
active

>  <cdk:Formula>
[]

>  <TD50_Rat_mmol>
0.0141

>  <net.bioclipse.cdk.fingerprint>
Bgb4wgMnYAAQCAWQlAABSqCigJEQwRABgEEELEAGgACRZIAGAARAGJQAAmEAAKQAQQACAAQGQIKAAAAGoQABTAICVAQAEgNQAIBALIhAEDACBZADBAjFoACgIIiIBGABVCIVIKUA+KByAECwmgIIAMBBAoECAAAIDIACAwCF

$$$$

 OpenBabel04131118512D

 16 17  0  0  0  0  0  0  0  0999 V2000
    4.3377   -1.1567    0.0000 C   0  0  0  0  0  0  0  0  0  0  0  0
    3.5528   -2.2308    0.0000 N   0  0  0  0  0  0  0  0  0  0  0  0
    2.2928   -1.8177    0.0000 C   0  0  0  0  0  0  0  0  0  0  0  0
    2.2928   -0.4854    0.0000 S   0  0  0  0  0  0  0  0  0  0  0  0
    3.5528   -0.0826    0.0000 C   0  0  0  0  0  0  0  0  0  0  0  0
    1.2187   -2.6026    0.0000 N   0  0  0  0  0  0  0  0  0  0  0  0
    0.0000   -2.0656    0.0000 N   0  0  0  0  0  0  0  0  0  0  0  0
    5.6700   -1.1567    0.0000 C   0  0  0  0  0  0  0  0  0  0  0  0
    6.3310    0.0000    0.0000 C   0  0  0  0  0  0  0  0  0  0  0  0
    7.6633    0.0000    0.0000 C   0  0  0  0  0  0  0  0  0  0  0  0
    8.3346   -1.1567    0.0000 C   0  0  0  0  0  0  0  0  0  0  0  0
    7.6633   -2.3031    0.0000 C   0  0  0  0  0  0  0  0  0  0  0  0
    6.3310   -2.3031    0.0000 C   0  0  0  0  0  0  0  0  0  0  0  0
    9.6669   -1.1567    0.0000 N   0  3  0  0  0  0  0  0  0  0  0  0
   10.3278    0.0000    0.0000 O   0  5  0  0  0  0  0  0  0  0  0  0
   10.3278   -2.3031    0.0000 O   0  0  0  0  0  0  0  0  0  0  0  0
  1  2  1  0  0  0  0
  1  5  2  0  0  0  0
  1  8  1  0  0  0  0
  2  3  2  0  0  0  0
  3  4  1  0  0  0  0
  3  6  1  0  0  0  0
  4  5  1  0  0  0  0
  6  7  1  0  0  0  0
  8  9  2  0  0  0  0
  8 13  1  0  0  0  0
  9 10  1  0  0  0  0
 10 11  2  0  0  0  0
 11 12  1  0  0  0  0
 11 14  1  0  0  0  0
 12 13  2  0  0  0  0
 14 15  1  0  0  0  0
 14 16  2  0  0  0  0
M  CHG  2  14   1  15  -1
M  END
>  <ActivityOutcome_CPDBAS_Rat>
active

>  <cdk:Formula>
[]

>  <TD50_Rat_mmol>
0.0136

>  <net.bioclipse.cdk.fingerprint>
AgaYggIFYAAQCAEAhAABiIAgAJEYwQACAEAGLEAGAACRZAAEAABBAAQAAmAAAKAAQAACAAAGQIaAAAAAAAABTAICBAQAEAMAAAAAIIAAABAABAADIAgVoACgAJCIACABFCJAIIEAwMhwAkSIkAIAAABBgAEAABAICAACAxAA

$$$$

 OpenBabel04131118512D

 14 15  0  0  0  0  0  0  0  0999 V2000
    3.9928   -1.1581    0.0000 N   0  0  0  0  0  0  0  0  0  0  0  0
    2.6619   -1.1581    0.0000 C   0  0  0  0  0  0  0  0  0  0  0  0
    1.9964   -2.3075    0.0000 C   0  0  0  0  0  0  0  0  0  0  0  0
    0.6655   -2.3075    0.0000 C   0  0  0  0  0  0  0  0  0  0  0  0
    0.0000   -1.1581    0.0000 C   0  0  0  0  0  0  0  0  0  0  0  0
    0.6655    0.0000    0.0000 C   0  0  0  0  0  0  0  0  0  0  0  0
    1.9964    0.0000    0.0000 C   0  0  0  0  0  0  0  0  0  0  0  0
    4.6497   -2.3075    0.0000 N   0  0  0  0  0  0  0  0  0  0  0  0
    5.9806   -2.3075    0.0000 C   0  0  0  0  0  0  0  0  0  0  0  0
    6.6461   -1.1581    0.0000 C   0  0  0  0  0  0  0  0  0  0  0  0
    7.9770   -1.1581    0.0000 C   0  0  0  0  0  0  0  0  0  0  0  0
    8.6425   -2.3075    0.0000 C   0  0  0  0  0  0  0  0  0  0  0  0
    7.9770   -3.4570    0.0000 C   0  0  0  0  0  0  0  0  0  0  0  0
    6.6461   -3.4570    0.0000 C   0  0  0  0  0  0  0  0  0  0  0  0
  1  2  1  0  0  0  0
  1  8  1  0  0  0  0
  2  3  2  0  0  0  0
  2  7  1  0  0  0  0
  3  4  1  0  0  0  0
  4  5  2  0  0  0  0
  5  6  1  0  0  0  0
  6  7  2  0  0  0  0
  8  9  1  0  0  0  0
  9 10  2  0  0  0  0
  9 14  1  0  0  0  0
 10 11  1  0  0  0  0
 11 12  2  0  0  0  0
 12 13  1  0  0  0  0
 13 14  2  0  0  0  0
M  END
>  <ActivityOutcome_CPDBAS_Rat>
active

>  <cdk:Formula>
[]

>  <TD50_Rat_mmol>
0.0303

>  <net.bioclipse.cdk.fingerprint>
AIAAAAgAAAAAIAAAAAAAAABAAACAAAAAQAAAAAABBAhCAAAAYAAAAEAAAAAAAAAAAAAAAAAAAAAAQAAAAAIQAIAAABAAAAAAAAAAAAAAAAAAAAAAAAAAEAAAAAAAAAAAACEAACAAIgAAABAABgAAAAAAAAAAgAAAAAAAAAAAAxAA

$$$$

 OpenBabel04131118512D

  7  6  0  0  0  0  0  0  0  0999 V2000
    1.3355   -1.3355    0.0000 C   0  0  0  0  0  0  0  0  0  0  0  0
    2.6711   -1.3355    0.0000 C   0  0  0  0  0  0  0  0  0  0  0  0
    1.3355    0.0000    0.0000 F   0  0  0  0  0  0  0  0  0  0  0  0
    0.0000   -1.3355    0.0000 F   0  0  0  0  0  0  0  0  0  0  0  0
    1.3355   -2.6711    0.0000 F   0  0  0  0  0  0  0  0  0  0  0  0
    3.3140   -2.4954    0.0000 Cl  0  0  0  0  0  0  0  0  0  0  0  0
    3.3140   -0.1922    0.0000 Cl  0  0  0  0  0  0  0  0  0  0  0  0
  1  2  1  0  0  0  0
  1  3  1  0  0  0  0
  1  4  1  0  0  0  0
  1  5  1  0  0  0  0
  2  6  1  0  0  0  0
  2  7  1  0  0  0  0
M  END
>  <ActivityOutcome_CPDBAS_Rat>
active

>  <cdk:Formula>
[]

>  <TD50_Rat_mmol>
15.5

>  <net.bioclipse.cdk.fingerprint>
MAAAwAAAAAAgAAAAAAAAACAAAAAGAAAAAAAAAAAAAAEAAAAAAACAAAAAAAAAAAAAAAAAAAAAAAAAAAAAAAAAAAAAAAAAAAAAAAAAAAAAAAAAAAAAAAAAAAAAAAAAAAAA

$$$$

 OpenBabel04131118512D

  8  8  0  0  0  0  0  0  0  0999 V2000
    0.0000   -1.1545    0.0000 O   0  0  0  0  0  0  0  0  0  0  0  0
    1.3300   -1.1545    0.0000 C   0  0  0  0  0  0  0  0  0  0  0  0
    1.9950    0.0000    0.0000 C   0  0  0  0  0  0  0  0  0  0  0  0
    3.3250    0.0000    0.0000 C   0  0  0  0  0  0  0  0  0  0  0  0
    3.9900   -1.1545    0.0000 C   0  0  0  0  0  0  0  0  0  0  0  0
    3.3250   -2.3036    0.0000 C   0  0  0  0  0  0  0  0  0  0  0  0
    1.9950   -2.3036    0.0000 C   0  0  0  0  0  0  0  0  0  0  0  0
    5.3201   -1.1545    0.0000 O   0  0  0  0  0  0  0  0  0  0  0  0
  1  2  1  0  0  0  0
  2  3  2  0  0  0  0
  2  7  1  0  0  0  0
  3  4  1  0  0  0  0
  4  5  2  0  0  0  0
  5  6  1  0  0  0  0
  5  8  1  0  0  0  0
  6  7  2  0  0  0  0
M  END
>  <ActivityOutcome_CPDBAS_Rat>
active

>  <cdk:Formula>
[]

>  <TD50_Rat_mmol>
0.752

>  <net.bioclipse.cdk.fingerprint>
AgAAAAAAAAAAAAAAAAAAAAAAAAAAAAACYQAAAAAAAAAAAAAAAAAAACAAAAAAQAAAAAAAAAAAAAAAAAAAAAAAAAAAAACAAAEAAAAAAAAAAAAAAAAAACAAAAAAICAAAAAAAgAAAAAAAAAAgAAAAAAAAAAAAAAA

$$$$

 OpenBabel04131118512D

 18 20  0  0  0  0  0  0  0  0999 V2000
    0.0000   -2.3030    0.0000 C   0  0  0  0  0  0  0  0  0  0  0  0
    1.3313   -2.3030    0.0000 C   0  0  0  0  0  0  0  0  0  0  0  0
    1.9920   -3.4593    0.0000 O   0  0  0  0  0  0  0  0  0  0  0  0
    1.9920   -1.1564    0.0000 N   0  0  0  0  0  0  0  0  0  0  0  0
    1.3313    0.0000    0.0000 O   0  0  0  0  0  0  0  0  0  0  0  0
    3.3233   -1.1564    0.0000 C   0  0  0  0  0  0  0  0  0  0  0  0
    3.9938   -2.3030    0.0000 C   0  0  0  0  0  0  0  0  0  0  0  0
    5.3251   -2.3030    0.0000 C   0  0  0  0  0  0  0  0  0  0  0  0
    5.9858   -1.1564    0.0000 C   0  0  0  0  0  0  0  0  0  0  0  0
    5.3251    0.0000    0.0000 C   0  0  0  0  0  0  0  0  0  0  0  0
    3.9938    0.0000    0.0000 C   0  0  0  0  0  0  0  0  0  0  0  0
    7.2880   -1.4284    0.0000 C   0  0  0  0  0  0  0  0  0  0  0  0
    8.3666   -0.6511    0.0000 C   0  0  0  0  0  0  0  0  0  0  0  0
    9.5812   -1.1952    0.0000 C   0  0  0  0  0  0  0  0  0  0  0  0
    9.7173   -2.5168    0.0000 C   0  0  0  0  0  0  0  0  0  0  0  0
    8.6387   -3.2942    0.0000 C   0  0  0  0  0  0  0  0  0  0  0  0
    7.4240   -2.7500    0.0000 C   0  0  0  0  0  0  0  0  0  0  0  0
    6.2093   -3.2942    0.0000 C   0  0  0  0  0  0  0  0  0  0  0  0
  1  2  1  0  0  0  0
  2  3  2  0  0  0  0
  2  4  1  0  0  0  0
  4  5  1  0  0  0  0
  4  6  1  0  0  0  0
  6  7  2  0  0  0  0
  6 11  1  0  0  0  0
  7  8  1  0  0  0  0
  8  9  2  0  0  0  0
  8 18  1  0  0  0  0
  9 10  1  0  0  0  0
  9 12  1  0  0  0  0
 10 11  2  0  0  0  0
 12 13  2  0  0  0  0
 12 17  1  0  0  0  0
 13 14  1  0  0  0  0
 14 15  2  0  0  0  0
 15 16  1  0  0  0  0
 16 17  2  0  0  0  0
 17 18  1  0  0  0  0
M  END
>  <ActivityOutcome_CPDBAS_Rat>
active

>  <cdk:Formula>
[]

>  <TD50_Rat_mmol>
0.00413

>  <net.bioclipse.cdk.fingerprint>
AIQAEAApICIFAAgAgCgBMAkAIAIQQEFBAAAAAgzAAwgAAGEgQRAAAIAAAAZAAoCgAAQAAgCGAEABCADABAkCwAUIwACAEUAAAAAARICg0AgAEADgAKAAAIAgAgAYoAAgQEkAQCAAQABAQAJggQ0ACAQUCoDQAsEQyAgEAAIQAA==

$$$$

 OpenBabel04131118512D

 17 19  0  0  0  0  0  0  0  0999 V2000
    0.0000   -4.6546    0.0000 O   0  0  0  0  0  0  0  0  0  0  0  0
    1.1504   -3.9897    0.0000 C   0  0  0  0  0  0  0  0  0  0  0  0
    2.3007   -4.6546    0.0000 C   0  0  0  0  0  0  0  0  0  0  0  0
    2.3007   -5.9845    0.0000 C   0  0  0  0  0  0  0  0  0  0  0  0
    3.4577   -6.6495    0.0000 C   0  0  0  0  0  0  0  0  0  0  0  0
    4.6081   -5.9845    0.0000 C   0  0  0  0  0  0  0  0  0  0  0  0
    4.6081   -4.6546    0.0000 C   0  0  0  0  0  0  0  0  0  0  0  0
    3.4577   -3.9897    0.0000 C   0  0  0  0  0  0  0  0  0  0  0  0
    3.4577   -2.6598    0.0000 C   0  0  0  0  0  0  0  0  0  0  0  0
    4.6081   -1.9948    0.0000 O   0  0  0  0  0  0  0  0  0  0  0  0
    2.3007   -1.9948    0.0000 C   0  0  0  0  0  0  0  0  0  0  0  0
    1.1504   -2.6598    0.0000 C   0  0  0  0  0  0  0  0  0  0  0  0
    0.0000   -1.9948    0.0000 C   0  0  0  0  0  0  0  0  0  0  0  0
    0.0000   -0.6649    0.0000 C   0  0  0  0  0  0  0  0  0  0  0  0
    1.1504    0.0000    0.0000 C   0  0  0  0  0  0  0  0  0  0  0  0
    2.3007   -0.6649    0.0000 C   0  0  0  0  0  0  0  0  0  0  0  0
    1.1504   -6.6495    0.0000 O   0  0  0  0  0  0  0  0  0  0  0  0
  1  2  2  0  0  0  0
  2  3  1  0  0  0  0
  2 12  1  0  0  0  0
  3  4  2  0  0  0  0
  3  8  1  0  0  0  0
  4  5  1  0  0  0  0
  4 17  1  0  0  0  0
  5  6  2  0  0  0  0
  6  7  1  0  0  0  0
  7  8  2  0  0  0  0
  8  9  1  0  0  0  0
  9 10  2  0  0  0  0
  9 11  1  0  0  0  0
 11 12  2  0  0  0  0
 11 16  1  0  0  0  0
 12 13  1  0  0  0  0
 13 14  2  0  0  0  0
 14 15  1  0  0  0  0
 15 16  2  0  0  0  0
M  END
>  <ActivityOutcome_CPDBAS_Rat>
active

>  <cdk:Formula>
[]

>  <TD50_Rat_mmol>
0.417

>  <net.bioclipse.cdk.fingerprint>
CAAAAAAAAYGCAIgAABABACAAAAAAAAAAAAAARAh4AAJpAQABhIAAAAFCAAEAIAAEIAABAABAAQIQQAAAAAQGCAAABABBCAAAIAAAYoAIAAAAwACAAACAAAAACIAAIABIAEAgIAACAAAGQCAEEAAAFACAEAhBKAAAAAAAAAA=

$$$$

 OpenBabel04131118512D

 19 20  0  0  0  0  0  0  0  0999 V2000
    6.9336   -1.6754    0.0000 N   0  0  0  0  0  0  0  0  0  0  0  0
    7.2171   -2.9771    0.0000 C   0  0  0  0  0  0  0  0  0  0  0  0
    8.4801   -3.3895    0.0000 C   0  0  0  0  0  0  0  0  0  0  0  0
    9.5627   -2.6033    0.0000 O   0  0  0  0  0  0  0  0  0  0  0  0
   10.6323   -3.3895    0.0000 C   0  0  0  0  0  0  0  0  0  0  0  0
   10.2199   -4.6525    0.0000 C   0  0  0  0  0  0  0  0  0  0  0  0
    8.8925   -4.6525    0.0000 C   0  0  0  0  0  0  0  0  0  0  0  0
   11.8953   -2.9771    0.0000 N   0  3  0  0  0  0  0  0  0  0  0  0
   12.8877   -3.8663    0.0000 O   0  0  0  0  0  0  0  0  0  0  0  0
   12.1789   -1.6754    0.0000 O   0  5  0  0  0  0  0  0  0  0  0  0
    5.6706   -1.2630    0.0000 N   0  0  0  0  0  0  0  0  0  0  0  0
    4.6009   -2.0491    0.0000 C   0  0  0  0  0  0  0  0  0  0  0  0
    4.6009   -3.3766    0.0000 O   0  0  0  0  0  0  0  0  0  0  0  0
    3.5183   -1.2630    0.0000 N   0  0  0  0  0  0  0  0  0  0  0  0
    3.9307    0.0000    0.0000 C   0  0  0  0  0  0  0  0  0  0  0  0
    5.2582    0.0000    0.0000 C   0  0  0  0  0  0  0  0  0  0  0  0
    2.2553   -1.6754    0.0000 C   0  0  0  0  0  0  0  0  0  0  0  0
    1.2630   -0.7861    0.0000 C   0  0  0  0  0  0  0  0  0  0  0  0
    0.0000   -1.1986    0.0000 O   0  0  0  0  0  0  0  0  0  0  0  0
  1  2  2  0  0  0  0
  1 11  1  0  0  0  0
  2  3  1  0  0  0  0
  3  4  1  0  0  0  0
  3  7  2  0  0  0  0
  4  5  1  0  0  0  0
  5  6  2  0  0  0  0
  5  8  1  0  0  0  0
  6  7  1  0  0  0  0
  8  9  2  0  0  0  0
  8 10  1  0  0  0  0
 11 12  1  0  0  0  0
 11 16  1  0  0  0  0
 12 13  2  0  0  0  0
 12 14  1  0  0  0  0
 14 15  1  0  0  0  0
 14 17  1  0  0  0  0
 15 16  1  0  0  0  0
 17 18  1  0  0  0  0
 18 19  1  0  0  0  0
M  CHG  2   8   1  10  -1
M  END
>  <ActivityOutcome_CPDBAS_Rat>
active

>  <cdk:Formula>
[]

>  <TD50_Rat_mmol>
0.0623

>  <net.bioclipse.cdk.fingerprint>
DhAAMAJBICMQEEqAAeIgAEooYAAAEuVQBABQAAQgJEBAIGAgBASCABICAAEALYkggIAQAmAA4EsAAgCABIASgAAQEAJggIEAAgABUB2AgQAAA8AQChQAQIAQACBEgRciBEQgFCQEBQIAcilAkDIAAADI5ALQBUgAgAACIAMgIA==

$$$$

 OpenBabel04131118512D

 11 10  0  0  0  0  0  0  0  0999 V2000
    1.9929   -3.4531    0.0000 O   0  0  0  0  0  0  0  0  0  0  0  0
    2.6571   -2.3040    0.0000 C   0  0  0  0  0  0  0  0  0  0  0  0
    1.9929   -1.1490    0.0000 N   0  0  0  0  0  0  0  0  0  0  0  0
    0.6643   -1.1490    0.0000 C   0  0  0  0  0  0  0  0  0  0  0  0
    0.0000   -2.3040    0.0000 C   0  0  0  0  0  0  0  0  0  0  0  0
    0.6643   -3.4531    0.0000 O   0  0  0  0  0  0  0  0  0  0  0  0
    2.6571    0.0000    0.0000 N   0  0  0  0  0  0  0  0  0  0  0  0
    3.9917    0.0000    0.0000 O   0  0  0  0  0  0  0  0  0  0  0  0
    3.9917   -2.3040    0.0000 N   0  0  0  0  0  0  0  0  0  0  0  0
    4.6560   -3.4531    0.0000 C   0  0  0  0  0  0  0  0  0  0  0  0
    5.9845   -3.4531    0.0000 C   0  0  0  0  0  0  0  0  0  0  0  0
  1  2  2  0  0  0  0
  2  3  1  0  0  0  0
  2  9  1  0  0  0  0
  3  4  1  0  0  0  0
  3  7  1  0  0  0  0
  4  5  1  0  0  0  0
  5  6  1  0  0  0  0
  7  8  2  0  0  0  0
  9 10  1  0  0  0  0
 10 11  1  0  0  0  0
M  END
>  <ActivityOutcome_CPDBAS_Rat>
active

>  <cdk:Formula>
[]

>  <TD50_Rat_mmol>
0.00349

>  <net.bioclipse.cdk.fingerprint>
CAAAAAIQAEoAAIAAAAAAAAAIAAAAAAAAAAAABAUAIGAAAAKAAAAAAAAAAQggAAEAAiAAIAAAAACAAAACgAAAAAAAAAEAAAAAAAAAgAAAAGAAAAAAAAAQAAAAAAAAAEQgAAAAAAAAAAAAAAAAAABAAABABAAAgAAAAAMAAA==

$$$$

 OpenBabel04131118512D

  9  8  0  0  0  0  0  0  0  0999 V2000
    1.1520    0.0000    0.0000 O   0  0  0  0  0  0  0  0  0  0  0  0
    2.3040   -0.6635    0.0000 C   0  0  0  0  0  0  0  0  0  0  0  0
    2.3040   -1.9953    0.0000 N   0  0  0  0  0  0  0  0  0  0  0  0
    3.4560   -2.6588    0.0000 C   0  0  0  0  0  0  0  0  0  0  0  0
    4.6080   -1.9953    0.0000 C   0  0  0  0  0  0  0  0  0  0  0  0
    4.6080   -0.6635    0.0000 O   0  0  0  0  0  0  0  0  0  0  0  0
    1.1520   -2.6588    0.0000 N   0  0  0  0  0  0  0  0  0  0  0  0
    0.0000   -1.9953    0.0000 O   0  0  0  0  0  0  0  0  0  0  0  0
    3.4560    0.0000    0.0000 N   0  0  0  0  0  0  0  0  0  0  0  0
  1  2  2  0  0  0  0
  2  3  1  0  0  0  0
  2  9  1  0  0  0  0
  3  4  1  0  0  0  0
  3  7  1  0  0  0  0
  4  5  1  0  0  0  0
  5  6  1  0  0  0  0
  7  8  2  0  0  0  0
M  END
>  <ActivityOutcome_CPDBAS_Rat>
active

>  <cdk:Formula>
[]

>  <TD50_Rat_mmol>
0.00183

>  <net.bioclipse.cdk.fingerprint>
AhAASgAAgAAAAAAAAAgAAAAAAAAAAAAEBQAAYAAAAoAAAAAAAAABCCAAAQAAIAAAAAAAAIAAAAKAAAAAAAAAAAAAAAAAAACAAAAAYAAAAAAAABAAAAAAAAAARCAAAAAAAAAAAAAAAAAAAAAAAEAEAAAAAAAAAwAA

$$$$

 OpenBabel04131118512D

 22 24  0  0  0  0  0  0  0  0999 V2000
    6.5118   -4.6570    0.0000 N   0  0  0  0  0  0  0  0  0  0  0  0
    5.3650   -3.9889    0.0000 C   0  0  0  0  0  0  0  0  0  0  0  0
    5.3650   -2.6526    0.0000 N   0  0  0  0  0  0  0  0  0  0  0  0
    6.5118   -1.9944    0.0000 C   0  0  0  0  0  0  0  0  0  0  0  0
    7.6686   -2.6526    0.0000 C   0  0  0  0  0  0  0  0  0  0  0  0
    8.8154   -1.9944    0.0000 C   0  0  0  0  0  0  0  0  0  0  0  0
    9.9721   -2.6526    0.0000 C   0  0  0  0  0  0  0  0  0  0  0  0
    9.9721   -3.9889    0.0000 C   0  0  0  0  0  0  0  0  0  0  0  0
    8.8154   -4.6570    0.0000 C   0  0  0  0  0  0  0  0  0  0  0  0
    7.6686   -3.9889    0.0000 C   0  0  0  0  0  0  0  0  0  0  0  0
    6.5118   -0.6582    0.0000 N   0  0  0  0  0  0  0  0  0  0  0  0
    5.3650    0.0000    0.0000 C   0  0  0  0  0  0  0  0  0  0  0  0
    4.2082   -0.6582    0.0000 C   0  0  0  0  0  0  0  0  0  0  0  0
    3.0615    0.0000    0.0000 O   0  0  0  0  0  0  0  0  0  0  0  0
    4.2082   -4.6570    0.0000 C   0  0  0  0  0  0  0  0  0  0  0  0
    4.0686   -5.9733    0.0000 C   0  0  0  0  0  0  0  0  0  0  0  0
    2.7723   -6.2525    0.0000 C   0  0  0  0  0  0  0  0  0  0  0  0
    2.1041   -5.0958    0.0000 C   0  0  0  0  0  0  0  0  0  0  0  0
    2.9916   -4.1085    0.0000 S   0  0  0  0  0  0  0  0  0  0  0  0
    0.7778   -4.9661    0.0000 N   0  3  0  0  0  0  0  0  0  0  0  0
    0.0000   -6.0332    0.0000 O   0  0  0  0  0  0  0  0  0  0  0  0
    0.2393   -3.7495    0.0000 O   0  5  0  0  0  0  0  0  0  0  0  0
  1  2  1  0  0  0  0
  1 10  2  0  0  0  0
  2  3  2  0  0  0  0
  2 15  1  0  0  0  0
  3  4  1  0  0  0  0
  4  5  2  0  0  0  0
  4 11  1  0  0  0  0
  5  6  1  0  0  0  0
  5 10  1  0  0  0  0
  6  7  2  0  0  0  0
  7  8  1  0  0  0  0
  8  9  2  0  0  0  0
  9 10  1  0  0  0  0
 11 12  1  0  0  0  0
 12 13  1  0  0  0  0
 13 14  1  0  0  0  0
 15 16  2  0  0  0  0
 15 19  1  0  0  0  0
 16 17  1  0  0  0  0
 17 18  2  0  0  0  0
 18 19  1  0  0  0  0
 18 20  1  0  0  0  0
 20 21  2  0  0  0  0
 20 22  1  0  0  0  0
M  CHG  2  20   1  22  -1
M  END
>  <ActivityOutcome_CPDBAS_Rat>
active

>  <cdk:Formula>
[]

>  <TD50_Rat_mmol>
0.00591

>  <net.bioclipse.cdk.fingerprint>
IAVAQxiSKgVigFIOAAChKQAIACAAgbhBhQAAQAAUSCYQGYFiCQQAIIGMIAAAIAqIIITEAAogCoLDAYAMgI0JAGHIwEAEESQMgFkABICAoNAAAEDAgAEAHCSCMLRIUICMoEAUosQgCRDABCAiQIChQAAEEFKgASAiBIASlAaKmEI=

$$$$

 OpenBabel04131118512D

 10  9  0  0  0  0  0  0  0  0999 V2000
    4.6062   -2.6601    0.0000 O   0  0  0  0  0  0  0  0  0  0  0  0
    3.4546   -1.9979    0.0000 C   0  0  0  0  0  0  0  0  0  0  0  0
    3.4546   -0.6679    0.0000 N   0  0  0  0  0  0  0  0  0  0  0  0
    2.3031    0.0000    0.0000 C   0  0  0  0  0  0  0  0  0  0  0  0
    1.1515   -0.6679    0.0000 C   0  0  0  0  0  0  0  0  0  0  0  0
    1.1515   -1.9979    0.0000 C   0  0  0  0  0  0  0  0  0  0  0  0
    0.0000   -2.6601    0.0000 O   0  0  0  0  0  0  0  0  0  0  0  0
    4.6062    0.0000    0.0000 N   0  0  0  0  0  0  0  0  0  0  0  0
    5.7577   -0.6679    0.0000 O   0  0  0  0  0  0  0  0  0  0  0  0
    2.3031   -2.6601    0.0000 N   0  0  0  0  0  0  0  0  0  0  0  0
  1  2  2  0  0  0  0
  2  3  1  0  0  0  0
  2 10  1  0  0  0  0
  3  4  1  0  0  0  0
  3  8  1  0  0  0  0
  4  5  1  0  0  0  0
  5  6  1  0  0  0  0
  6  7  1  0  0  0  0
  8  9  2  0  0  0  0
M  END
>  <ActivityOutcome_CPDBAS_Rat>
active

>  <cdk:Formula>
[]

>  <TD50_Rat_mmol>
0.00665

>  <net.bioclipse.cdk.fingerprint>
AhAASgABgAAAEAAAABAAAAAAAAAAAAAEBQAAYAAAAoAAAAAAAAABECAAQQACAAAAAAAAAMIAAAKAAAAAAAAAAAAAAAAAAACAAAEACiAAAAAAABAAAAAAAAAARCAAAAAIAAAAAAAAAAAAAAAAAEBAAAAAAAAAAwAA

$$$$

 OpenBabel04131118512D

 13 14  0  0  0  0  0  0  0  0999 V2000
    6.0944   -3.4555    0.0000 O   0  0  0  0  0  0  0  0  0  0  0  0
    5.4301   -2.3037    0.0000 C   0  0  0  0  0  0  0  0  0  0  0  0
    6.0944   -1.1518    0.0000 C   0  0  0  0  0  0  0  0  0  0  0  0
    5.4301    0.0000    0.0000 C   0  0  0  0  0  0  0  0  0  0  0  0
    4.1016   -2.3037    0.0000 C   0  0  0  0  0  0  0  0  0  0  0  0
    3.4373   -3.4555    0.0000 C   0  0  0  0  0  0  0  0  0  0  0  0
    2.1026   -3.4555    0.0000 C   0  0  0  0  0  0  0  0  0  0  0  0
    1.4383   -2.3037    0.0000 C   0  0  0  0  0  0  0  0  0  0  0  0
    0.1402   -2.0294    0.0000 O   0  0  0  0  0  0  0  0  0  0  0  0
    0.0000   -0.7070    0.0000 C   0  0  0  0  0  0  0  0  0  0  0  0
    1.2128   -0.1645    0.0000 O   0  0  0  0  0  0  0  0  0  0  0  0
    2.1026   -1.1518    0.0000 C   0  0  0  0  0  0  0  0  0  0  0  0
    3.4373   -1.1518    0.0000 C   0  0  0  0  0  0  0  0  0  0  0  0
  1  2  1  0  0  0  0
  2  3  1  0  0  0  0
  2  5  1  0  0  0  0
  3  4  2  0  0  0  0
  5  6  2  0  0  0  0
  5 13  1  0  0  0  0
  6  7  1  0  0  0  0
  7  8  2  0  0  0  0
  8  9  1  0  0  0  0
  8 12  1  0  0  0  0
  9 10  1  0  0  0  0
 10 11  1  0  0  0  0
 11 12  1  0  0  0  0
 12 13  2  0  0  0  0
M  END
>  <ActivityOutcome_CPDBAS_Rat>
active

>  <cdk:Formula>
[]

>  <TD50_Rat_mmol>
0.103

>  <net.bioclipse.cdk.fingerprint>
QAIACAAABEAIAIIAAAAAAAAAAigFAACAAAIAQAACCIgkAmEAAASAgAAIAAAAAAAgBOQgQBAQIEAAACBAAAAAAAYYAAAIAEIAAAIEAAAAgAAQAAAAAAAAAJARAAAAgIAgAArAQCAkYAMQAAJMCAQKgoAUAIAAIACAAaABICAAAA==

$$$$

 OpenBabel04131118512D

 19 20  0  0  0  0  0  0  0  0999 V2000
    4.6481   -4.6049    0.0000 C   0  0  0  0  0  0  0  0  0  0  0  0
    3.9915   -3.4558    0.0000 C   0  0  0  0  0  0  0  0  0  0  0  0
    4.6481   -2.2981    0.0000 C   0  0  0  0  0  0  0  0  0  0  0  0
    5.9785   -2.2981    0.0000 N   0  0  0  0  0  0  0  0  0  0  0  0
    6.6438   -1.1491    0.0000 C   0  0  0  0  0  0  0  0  0  0  0  0
    7.9743   -1.1491    0.0000 C   0  0  0  0  0  0  0  0  0  0  0  0
    8.6395    0.0000    0.0000 O   0  0  0  0  0  0  0  0  0  0  0  0
    8.6395   -2.2981    0.0000 N   0  0  0  0  0  0  0  0  0  0  0  0
    7.9743   -3.4558    0.0000 C   0  0  0  0  0  0  0  0  0  0  0  0
    8.6395   -4.6049    0.0000 O   0  0  0  0  0  0  0  0  0  0  0  0
    6.6438   -3.4558    0.0000 C   0  0  0  0  0  0  0  0  0  0  0  0
    2.6610   -3.4558    0.0000 N   0  0  0  0  0  0  0  0  0  0  0  0
    1.9957   -4.6049    0.0000 C   0  0  0  0  0  0  0  0  0  0  0  0
    0.6652   -4.6049    0.0000 C   0  0  0  0  0  0  0  0  0  0  0  0
    0.0000   -5.7539    0.0000 O   0  0  0  0  0  0  0  0  0  0  0  0
    0.0000   -3.4558    0.0000 N   0  0  0  0  0  0  0  0  0  0  0  0
    0.6652   -2.2981    0.0000 C   0  0  0  0  0  0  0  0  0  0  0  0
    0.0000   -1.1491    0.0000 O   0  0  0  0  0  0  0  0  0  0  0  0
    1.9957   -2.2981    0.0000 C   0  0  0  0  0  0  0  0  0  0  0  0
  1  2  1  0  0  0  0
  2  3  1  0  0  0  0
  2 12  1  0  0  0  0
  3  4  1  0  0  0  0
  4  5  1  0  0  0  0
  4 11  1  0  0  0  0
  5  6  1  0  0  0  0
  6  7  2  0  0  0  0
  6  8  1  0  0  0  0
  8  9  1  0  0  0  0
  9 10  2  0  0  0  0
  9 11  1  0  0  0  0
 12 13  1  0  0  0  0
 12 19  1  0  0  0  0
 13 14  1  0  0  0  0
 14 15  2  0  0  0  0
 14 16  1  0  0  0  0
 16 17  1  0  0  0  0
 17 18  2  0  0  0  0
 17 19  1  0  0  0  0
M  END
>  <ActivityOutcome_CPDBAS_Rat>
active

>  <cdk:Formula>
[]

>  <TD50_Rat_mmol>
0.0399

>  <net.bioclipse.cdk.fingerprint>
EAAAEAAAAgAAAgABEAAAAQAAAAASAIAAAAAAAAAAAAAAYAAABAAAAFBAAAABAGAAEBAAQAAAAAAAAMAAAACAAABAAAAAgEAAAAAAAACAAAAAACAAAAAAAABAAAAAFAAAQAAAAAAAEUAgAAAAAACAAABAAFAAAAAAAAAAAgAA

$$$$

 OpenBabel04131118512D

 21 21  0  0  0  0  0  0  0  0999 V2000
    5.7748   -2.2334    0.0000 N   0  0  0  0  0  0  0  0  0  0  0  0
    3.5255   -1.7548    0.0000 N   0  0  0  0  0  0  0  0  0  0  0  0
    0.0000   -1.6910    0.0000 F   0  0  0  0  0  0  0  0  0  0  0  0
    1.6750   -2.5364    0.0000 F   0  0  0  0  0  0  0  0  0  0  0  0
    1.2762   -1.2602    0.0000 C   0  0  0  0  0  0  0  0  0  0  0  0
    2.5364   -0.8614    0.0000 C   0  0  0  0  0  0  0  0  0  0  0  0
    0.8455    0.0000    0.0000 F   0  0  0  0  0  0  0  0  0  0  0  0
    4.7857   -1.3400    0.0000 C   0  0  0  0  0  0  0  0  0  0  0  0
    5.0569   -0.0479    0.0000 N   0  0  0  0  0  0  0  0  0  0  0  0
    8.1198   -2.6003    0.0000 N   0  0  0  0  0  0  0  0  0  0  0  0
    7.0351   -1.8186    0.0000 C   0  0  0  0  0  0  0  0  0  0  0  0
    9.1886   -1.8186    0.0000 N   0  0  0  0  0  0  0  0  0  0  0  0
    7.4498   -0.5583    0.0000 C   0  0  0  0  0  0  0  0  0  0  0  0
    8.7739   -0.5583    0.0000 C   0  0  0  0  0  0  0  0  0  0  0  0
   10.4489   -2.2334    0.0000 C   0  0  0  0  0  0  0  0  0  0  0  0
   11.4539   -1.3400    0.0000 C   0  0  0  0  0  0  0  0  0  0  0  0
   12.7141   -1.7548    0.0000 C   0  0  0  0  0  0  0  0  0  0  0  0
   13.6872   -0.8614    0.0000 C   0  0  0  0  0  0  0  0  0  0  0  0
   14.9634   -1.2602    0.0000 C   0  0  0  0  0  0  0  0  0  0  0  0
   15.2346   -2.5684    0.0000 N   0  0  0  0  0  0  0  0  0  0  0  0
   15.9525   -0.3829    0.0000 O   0  0  0  0  0  0  0  0  0  0  0  0
  1  8  1  0  0  0  0
  1 11  1  0  0  0  0
  2  6  1  0  0  0  0
  2  8  1  0  0  0  0
  3  5  1  0  0  0  0
  4  5  1  0  0  0  0
  5  6  1  0  0  0  0
  5  7  1  0  0  0  0
  8  9  2  0  0  0  0
 10 11  2  0  0  0  0
 10 12  1  0  0  0  0
 11 13  1  0  0  0  0
 12 14  1  0  0  0  0
 12 15  1  0  0  0  0
 13 14  2  0  0  0  0
 15 16  1  0  0  0  0
 16 17  1  0  0  0  0
 17 18  1  0  0  0  0
 18 19  1  0  0  0  0
 19 20  1  0  0  0  0
 19 21  2  0  0  0  0
M  END
>  <ActivityOutcome_CPDBAS_Rat>
active

>  <cdk:Formula>
[]

>  <TD50_Rat_mmol>
3.82

>  <net.bioclipse.cdk.fingerprint>
EARAIoCISCSiEAJMAVEgggAAAAkAEACAAAACBBAOwAA5EQRsCAAAoCAAAAkAAEEAZYJgACUQQlDQPAAgwJAAkEAAEAwIIBBBCAAgESBMyIAAAMSCIBEAAAAAEAAEAgCACAhAgAYhA0QEAgOEABEIQQBAQAAEWAggAAIREAICUAA=

$$$$

 OpenBabel04131118512D

 19 21  0  0  0  0  0  0  0  0999 V2000
    7.1239   -0.3699    0.0000 C   0  0  0  0  0  0  0  0  0  0  0  0
    8.2020   -1.1521    0.0000 C   0  0  0  0  0  0  0  0  0  0  0  0
    8.8678    0.0000    0.0000 C   0  0  0  0  0  0  0  0  0  0  0  0
    9.4174   -1.6911    0.0000 C   0  0  0  0  0  0  0  0  0  0  0  0
   10.5695   -1.0252    0.0000 O   0  0  0  0  0  0  0  0  0  0  0  0
    9.2800   -3.0123    0.0000 N   0  0  0  0  0  0  0  0  0  0  0  0
    7.9800   -3.2871    0.0000 C   0  0  0  0  0  0  0  0  0  0  0  0
    7.3141   -4.4392    0.0000 C   0  0  0  0  0  0  0  0  0  0  0  0
    5.9824   -4.4392    0.0000 C   0  0  0  0  0  0  0  0  0  0  0  0
    5.3165   -3.2871    0.0000 C   0  0  0  0  0  0  0  0  0  0  0  0
    5.9824   -2.1350    0.0000 C   0  0  0  0  0  0  0  0  0  0  0  0
    7.3141   -2.1350    0.0000 C   0  0  0  0  0  0  0  0  0  0  0  0
    3.9847   -3.2871    0.0000 C   0  0  0  0  0  0  0  0  0  0  0  0
    3.3294   -4.4392    0.0000 N   0  0  0  0  0  0  0  0  0  0  0  0
    1.9976   -4.4392    0.0000 N   0  0  0  0  0  0  0  0  0  0  0  0
    1.3318   -3.2871    0.0000 C   0  0  0  0  0  0  0  0  0  0  0  0
    0.0000   -3.2871    0.0000 O   0  0  0  0  0  0  0  0  0  0  0  0
    1.9976   -2.1350    0.0000 C   0  0  0  0  0  0  0  0  0  0  0  0
    3.3294   -2.1350    0.0000 C   0  0  0  0  0  0  0  0  0  0  0  0
  1  2  1  0  0  0  0
  2  3  1  0  0  0  0
  2  4  1  0  0  0  0
  2 12  1  0  0  0  0
  4  5  2  0  0  0  0
  4  6  1  0  0  0  0
  6  7  1  0  0  0  0
  7  8  1  0  0  0  0
  7 12  2  0  0  0  0
  8  9  2  0  0  0  0
  9 10  1  0  0  0  0
 10 11  2  0  0  0  0
 10 13  1  0  0  0  0
 11 12  1  0  0  0  0
 13 14  2  0  0  0  0
 13 19  1  0  0  0  0
 14 15  1  0  0  0  0
 15 16  1  0  0  0  0
 16 17  2  0  0  0  0
 16 18  1  0  0  0  0
 18 19  1  0  0  0  0
M  END
>  <ActivityOutcome_CPDBAS_Rat>
active

>  <cdk:Formula>
[]

>  <TD50_Rat_mmol>
0.00781

>  <net.bioclipse.cdk.fingerprint>
ApAAEBRBsCMIAFoCA8g2EAggAMAAAWlBCwiARBTEdkkBIHBQAAoIAAIAAAAAAJDwgiRAAQICBEJABiDQBIATyIQcIIAAEUIEABIARoMAkAAABUAhCCiEgYQQwAAggAAhQEIiQCUDCSAAACtAECRBIAFcIJJUAMQAgIBMIAN4RA==

$$$$

 OpenBabel04131118512D

 25 27  0  0  0  0  0  0  0  0999 V2000
    7.2522   -3.4100    0.0000 C   0  0  0  0  0  0  0  0  0  0  0  0
    6.0995   -4.0704    0.0000 C   0  0  0  0  0  0  0  0  0  0  0  0
    4.8868   -3.5301    0.0000 C   0  0  0  0  0  0  0  0  0  0  0  0
    3.9863   -4.5266    0.0000 C   0  0  0  0  0  0  0  0  0  0  0  0
    4.6587   -5.6793    0.0000 C   0  0  0  0  0  0  0  0  0  0  0  0
    3.9863   -6.8200    0.0000 C   0  0  0  0  0  0  0  0  0  0  0  0
    2.6655   -6.8200    0.0000 C   0  0  0  0  0  0  0  0  0  0  0  0
    1.9932   -5.6793    0.0000 C   0  0  0  0  0  0  0  0  0  0  0  0
    2.6655   -4.5266    0.0000 C   0  0  0  0  0  0  0  0  0  0  0  0
    0.6604   -5.6793    0.0000 O   0  0  0  0  0  0  0  0  0  0  0  0
    0.0000   -6.8200    0.0000 C   0  0  0  0  0  0  0  0  0  0  0  0
    5.9555   -5.3911    0.0000 N   0  0  0  0  0  0  0  0  0  0  0  0
    6.9520   -6.2917    0.0000 C   0  0  0  0  0  0  0  0  0  0  0  0
    6.6639   -7.5884    0.0000 O   0  0  0  0  0  0  0  0  0  0  0  0
    8.2128   -5.8714    0.0000 C   0  0  0  0  0  0  0  0  0  0  0  0
    8.4889   -4.5747    0.0000 C   0  0  0  0  0  0  0  0  0  0  0  0
    9.7497   -4.1664    0.0000 C   0  0  0  0  0  0  0  0  0  0  0  0
   10.7462   -5.0549    0.0000 C   0  0  0  0  0  0  0  0  0  0  0  0
   10.4701   -6.3517    0.0000 C   0  0  0  0  0  0  0  0  0  0  0  0
    9.1973   -6.7719    0.0000 C   0  0  0  0  0  0  0  0  0  0  0  0
   12.0070   -4.6467    0.0000 Cl  0  0  0  0  0  0  0  0  0  0  0  0
    4.5987   -2.2333    0.0000 C   0  0  0  0  0  0  0  0  0  0  0  0
    5.5472   -1.2968    0.0000 C   0  0  0  0  0  0  0  0  0  0  0  0
    5.1990    0.0000    0.0000 O   0  0  0  0  0  0  0  0  0  0  0  0
    6.8320   -1.6329    0.0000 O   0  0  0  0  0  0  0  0  0  0  0  0
  1  2  1  0  0  0  0
  2  3  2  0  0  0  0
  2 12  1  0  0  0  0
  3  4  1  0  0  0  0
  3 22  1  0  0  0  0
  4  5  2  0  0  0  0
  4  9  1  0  0  0  0
  5  6  1  0  0  0  0
  5 12  1  0  0  0  0
  6  7  2  0  0  0  0
  7  8  1  0  0  0  0
  8  9  2  0  0  0  0
  8 10  1  0  0  0  0
 10 11  1  0  0  0  0
 12 13  1  0  0  0  0
 13 14  2  0  0  0  0
 13 15  1  0  0  0  0
 15 16  2  0  0  0  0
 15 20  1  0  0  0  0
 16 17  1  0  0  0  0
 17 18  2  0  0  0  0
 18 19  1  0  0  0  0
 18 21  1  0  0  0  0
 19 20  2  0  0  0  0
 22 23  1  0  0  0  0
 23 24  2  0  0  0  0
 23 25  1  0  0  0  0
M  END
>  <ActivityOutcome_CPDBAS_Rat>
active

>  <cdk:Formula>
[]

>  <TD50_Rat_mmol>
0.00321

>  <net.bioclipse.cdk.fingerprint>
BOAQQBAgACBiGJISIgAoAICogoOIBEFNqQAgAwQcwG4qGAbpyEQE1MkgABAiAAWS4AAENCACGoVQBCgg4MQEqeAWmAQEAAUQBBACBCagEpIkAQhCEBAsAhOJEBUAEoGE4ABAEMUgpCFDABErwhjsIUDkH4iMUhx0AKhSQABqGAQ=

$$$$

 OpenBabel04131118512D

 15 17  0  0  0  0  0  0  0  0999 V2000
    0.3043   -0.5362    0.0000 C   0  0  0  0  0  0  0  0  0  0  0  0
    1.2899   -1.4275    0.0000 N   0  0  0  0  0  0  0  0  0  0  0  0
    2.5942   -1.1522    0.0000 C   0  0  0  0  0  0  0  0  0  0  0  0
    3.2536   -2.3043    0.0000 C   0  0  0  0  0  0  0  0  0  0  0  0
    4.5869   -2.3043    0.0000 C   0  0  0  0  0  0  0  0  0  0  0  0
    5.2536   -1.1522    0.0000 C   0  0  0  0  0  0  0  0  0  0  0  0
    4.5869    0.0000    0.0000 C   0  0  0  0  0  0  0  0  0  0  0  0
    3.2536    0.0000    0.0000 C   0  0  0  0  0  0  0  0  0  0  0  0
    6.5797   -1.1522    0.0000 N   0  0  0  0  0  0  0  0  0  0  0  0
    7.2464   -2.3043    0.0000 C   0  0  0  0  0  0  0  0  0  0  0  0
    6.5797   -3.4565    0.0000 C   0  0  0  0  0  0  0  0  0  0  0  0
    5.2536   -3.4565    0.0000 C   0  0  0  0  0  0  0  0  0  0  0  0
    2.3696   -3.2898    0.0000 N   0  0  0  0  0  0  0  0  0  0  0  0
    1.1522   -2.7536    0.0000 C   0  0  0  0  0  0  0  0  0  0  0  0
    0.0000   -3.4203    0.0000 N   0  0  0  0  0  0  0  0  0  0  0  0
  1  2  1  0  0  0  0
  2  3  1  0  0  0  0
  2 14  1  0  0  0  0
  3  4  2  0  0  0  0
  3  8  1  0  0  0  0
  4  5  1  0  0  0  0
  4 13  1  0  0  0  0
  5  6  2  0  0  0  0
  5 12  1  0  0  0  0
  6  7  1  0  0  0  0
  6  9  1  0  0  0  0
  7  8  2  0  0  0  0
  9 10  2  0  0  0  0
 10 11  1  0  0  0  0
 11 12  2  0  0  0  0
 13 14  2  0  0  0  0
 14 15  1  0  0  0  0
M  END
>  <ActivityOutcome_CPDBAS_Rat>
active

>  <cdk:Formula>
[]

>  <TD50_Rat_mmol>
0.0041

>  <net.bioclipse.cdk.fingerprint>
QAKhkaIEAICSLAYDIAAAAAAAAIAAIAAAAAAAAAgAAAAQ4AAAQKwAoAAAQQDgTAAAAAAgAAAAwCAAAAiQAACDAAAAAACgAAAAAQQAQiAAAuAAgLQBAAEkEDAAQABBACBAABEEIAiBQCTAAgEEAYAABAAQgAgACkAAAAAAAgFC

$$$$

 OpenBabel04131118512D

 26 28  0  0  0  0  0  0  0  0999 V2000
    5.6788   -1.5774    0.0000 C   0  0  1  0  0  0  0  0  0  0  0  0
    2.2265   -3.6056    0.0000 C   0  0  0  0  0  0  0  0  0  0  0  0
    3.3352   -4.2726    0.0000 O   0  0  0  0  0  0  0  0  0  0  0  0
    3.3352   -5.5706    0.0000 C   0  0  1  0  0  0  0  0  0  0  0  0
    6.6884   -2.3166    0.0000 C   0  0  0  0  0  0  0  0  0  0  0  0
    2.2265   -2.3166    0.0000 C   0  0  0  0  0  0  0  0  0  0  0  0
    5.5887   -5.5706    0.0000 C   0  0  0  0  0  0  0  0  0  0  0  0
    4.4799   -7.5357    0.0000 N   0  3  0  0  0  0  0  0  0  0  0  0
    4.4799   -6.2016    0.0000 C   0  0  0  0  0  0  0  0  0  0  0  0
    6.6884   -3.6056    0.0000 O   0  0  0  0  0  0  0  0  0  0  0  0
    4.2726   -1.2620    0.0000 C   0  0  1  0  0  0  0  0  0  0  0  0
    6.6884   -6.2016    0.0000 C   0  0  0  0  0  0  0  0  0  0  0  0
    2.9476   -1.6135    0.0000 C   0  0  0  0  0  0  0  0  0  0  0  0
    2.2265   -6.2016    0.0000 C   0  0  0  0  0  0  0  0  0  0  0  0
    5.5887   -4.2726    0.0000 C   0  0  0  0  0  0  0  0  0  0  0  0
    6.6884   -7.5357    0.0000 C   0  0  0  0  0  0  0  0  0  0  0  0
    2.2265   -7.5357    0.0000 C   0  0  0  0  0  0  0  0  0  0  0  0
    1.0817   -4.2726    0.0000 O   0  0  0  0  0  0  0  0  0  0  0  0
    7.8151   -1.6676    0.0000 O   0  0  0  0  0  0  0  0  0  0  0  0
    1.1267   -1.6676    0.0000 C   0  0  0  0  0  0  0  0  0  0  0  0
    5.5797   -0.4777    0.0000 O   0  0  0  0  0  0  0  0  0  0  0  0
    6.4450   -1.0636    0.0000 C   0  0  0  0  0  0  0  0  0  0  0  0
    7.3374   -1.0636    0.0000 O   0  0  0  0  0  0  0  0  0  0  0  0
    4.2726    0.0000    0.0000 C   0  0  0  0  0  0  0  0  0  0  0  0
    0.0000   -2.2986    0.0000 C   0  0  0  0  0  0  0  0  0  0  0  0
    4.4799   -9.0140    0.0000 O   0  5  0  0  0  0  0  0  0  0  0  0
  1  5  1  0  0  0  0
  1 11  1  0  0  0  0
  1 21  1  1  0  0  0
  1 22  1  6  0  0  0
  2  6  1  0  0  0  0
  2  3  1  0  0  0  0
  2 18  2  0  0  0  0
  4  3  1  1  0  0  0
  4 14  1  0  0  0  0
  4  9  1  0  0  0  0
  5 10  1  0  0  0  0
  5 19  2  0  0  0  0
  6 13  1  0  0  0  0
  6 20  2  0  0  0  0
  7 15  1  0  0  0  0
  7  9  1  0  0  0  0
  7 12  2  0  0  0  0
  8  9  1  0  0  0  0
  8 17  1  0  0  0  0
  8 16  1  0  0  0  0
  8 26  1  0  0  0  0
 10 15  1  0  0  0  0
 11 13  1  0  0  0  0
 11 24  1  1  0  0  0
 12 16  1  0  0  0  0
 14 17  1  0  0  0  0
 20 25  1  0  0  0  0
 22 23  1  0  0  0  0
M  CHG  2   8   1  26  -1
M  END
>  <ActivityOutcome_CPDBAS_Rat>
active

>  <cdk:Formula>
[]

>  <TD50_Rat_mmol>
0.00195

>  <net.bioclipse.cdk.fingerprint>
AtCYBUkDAgBqIYiKBAMBQxEUahICBDEC4TAEAMOAACATAwBhxowQAGADAAkJAADZbAYyBkaQEBJiAEQjwWQwQEAABCQucgHAABQAYVaoUMgLAAhTIGFEQDBhMoQCCEIogQhIRxABCACBCghiQBAgB7UACYAE8H/ACEtoQQZCACA=

$$$$

 OpenBabel04131118512D

  4  3  0  0  0  0  0  0  0  0999 V2000
    1.1459   -1.3361    0.0000 C   0  0  0  0  0  0  0  0  0  0  0  0
    0.0000   -2.0053    0.0000 C   0  0  0  0  0  0  0  0  0  0  0  0
    2.2917   -2.0053    0.0000 C   0  0  0  0  0  0  0  0  0  0  0  0
    1.1459    0.0000    0.0000 C   0  0  0  0  0  0  0  0  0  0  0  0
  1  2  2  0  0  0  0
  1  3  1  0  0  0  0
  1  4  1  0  0  0  0
M  END
>  <ActivityOutcome_CPDBAS_Rat>
active

>  <cdk:Formula>
[]

>  <TD50_Rat_mmol>
63.3

>  <net.bioclipse.cdk.fingerprint>
QAAAAAAAAAAAAAAAAAAAAAAAAAAAAAAAAAAAAAAAAAAAAEAAAAAAAAAAAAAAAAAgAAAAAAAQAAAAAABAAAAAAAAAAAAAAAAAAAAAAAAAAAAAAAAAAAAAAAAAAAAAAAAAAAAAAAAAAAAAAAAAAAAAAAAAAAAAAAAAAAAAAAAAAA==

$$$$

 OpenBabel04131118512D

  7  6  0  0  0  0  0  0  0  0999 V2000
    5.7637   -1.9942    0.0000 C   0  0  0  0  0  0  0  0  0  0  0  0
    4.6110   -1.3314    0.0000 C   0  0  0  0  0  0  0  0  0  0  0  0
    3.4582   -1.9942    0.0000 C   0  0  0  0  0  0  0  0  0  0  0  0
    2.3055   -1.3314    0.0000 O   0  0  0  0  0  0  0  0  0  0  0  0
    1.1527   -1.9942    0.0000 N   0  0  0  0  0  0  0  0  0  0  0  0
    0.0000   -1.3314    0.0000 O   0  0  0  0  0  0  0  0  0  0  0  0
    4.6110    0.0000    0.0000 C   0  0  0  0  0  0  0  0  0  0  0  0
  1  2  1  0  0  0  0
  2  3  1  0  0  0  0
  2  7  1  0  0  0  0
  3  4  1  0  0  0  0
  4  5  1  0  0  0  0
  5  6  2  0  0  0  0
M  END
>  <ActivityOutcome_CPDBAS_Rat>
active

>  <cdk:Formula>
[]

>  <TD50_Rat_mmol>
0.525

>  <net.bioclipse.cdk.fingerprint>
CgAAAIAAAAAAAAAAAAAAAAAAAAAEAAAAZAAAAAAAAAAAAAAAECAAAAAAAAAAAAAAAEAAAAAAAAAAAAAAAAAAAAAAAAAAAAAAAAAAAAAAABAAASAAAAAABAAAAAAAAAEAAAAAAAAAIAAAAAAAAAAAAAAAAAAA

$$$$

 OpenBabel04131118512D

 20 22  0  0  0  0  0  0  0  0999 V2000
    6.3464    0.0000    0.0000 C   0  0  0  0  0  0  0  0  0  0  0  0
    5.6849   -1.1473    0.0000 O   0  0  0  0  0  0  0  0  0  0  0  0
    6.3464   -2.3050    0.0000 C   0  0  0  0  0  0  0  0  0  0  0  0
    7.6798   -2.3050    0.0000 C   0  0  0  0  0  0  0  0  0  0  0  0
    8.3413   -3.4523    0.0000 C   0  0  0  0  0  0  0  0  0  0  0  0
    7.6798   -4.6099    0.0000 C   0  0  0  0  0  0  0  0  0  0  0  0
    6.3464   -4.6099    0.0000 C   0  0  0  0  0  0  0  0  0  0  0  0
    5.6849   -3.4523    0.0000 C   0  0  0  0  0  0  0  0  0  0  0  0
    4.3515   -3.4523    0.0000 C   0  0  0  0  0  0  0  0  0  0  0  0
    3.5660   -4.5272    0.0000 N   0  0  0  0  0  0  0  0  0  0  0  0
    2.3050   -4.1241    0.0000 C   0  0  0  0  0  0  0  0  0  0  0  0
    1.1473   -4.7856    0.0000 C   0  0  0  0  0  0  0  0  0  0  0  0
    0.0000   -4.1241    0.0000 N   0  0  0  0  0  0  0  0  0  0  0  0
    0.0000   -2.7908    0.0000 C   0  0  0  0  0  0  0  0  0  0  0  0
    1.1473   -2.1292    0.0000 C   0  0  0  0  0  0  0  0  0  0  0  0
    2.3050   -2.7908    0.0000 C   0  0  0  0  0  0  0  0  0  0  0  0
    3.5660   -2.3773    0.0000 N   0  0  0  0  0  0  0  0  0  0  0  0
    9.6746   -3.4523    0.0000 S   0  0  0  0  0  0  0  0  0  0  0  0
   10.3361   -2.3050    0.0000 C   0  0  0  0  0  0  0  0  0  0  0  0
   10.3361   -4.6099    0.0000 O   0  0  0  0  0  0  0  0  0  0  0  0
  1  2  1  0  0  0  0
  2  3  1  0  0  0  0
  3  4  1  0  0  0  0
  3  8  2  0  0  0  0
  4  5  2  0  0  0  0
  5  6  1  0  0  0  0
  5 18  1  0  0  0  0
  6  7  2  0  0  0  0
  7  8  1  0  0  0  0
  8  9  1  0  0  0  0
  9 10  1  0  0  0  0
  9 17  2  0  0  0  0
 10 11  1  0  0  0  0
 11 12  2  0  0  0  0
 11 16  1  0  0  0  0
 12 13  1  0  0  0  0
 13 14  2  0  0  0  0
 14 15  1  0  0  0  0
 15 16  2  0  0  0  0
 16 17  1  0  0  0  0
 18 19  1  0  0  0  0
 18 20  2  0  0  0  0
M  END
>  <ActivityOutcome_CPDBAS_Rat>
active

>  <cdk:Formula>
[]

>  <TD50_Rat_mmol>
0.245

>  <net.bioclipse.cdk.fingerprint>
TIACC5UiAUAAii4AAIEAKIEAICSEgKCKAIAABAEIAoAQg2MAAAAqg4QAEABwohggAAAsCBAEAEAQgBACAIBDAQYwAAQANSEQQAAFAAIBgACgIMS0BAABIKEwAAAAgAYgYBAQwCCgIUMoAALCEIEAAEAIAqIAYCABAAEAAigBQg==

$$$$

 OpenBabel04131118512D

 10 10  0  0  0  0  0  0  0  0999 V2000
    4.6545   -3.4536    0.0000 O   0  0  0  0  0  0  0  0  0  0  0  0
    3.9889   -2.3040    0.0000 C   0  0  0  0  0  0  0  0  0  0  0  0
    2.6577   -2.3040    0.0000 C   0  0  0  0  0  0  0  0  0  0  0  0
    1.9968   -3.4536    0.0000 C   0  0  0  0  0  0  0  0  0  0  0  0
    0.6656   -3.4536    0.0000 C   0  0  0  0  0  0  0  0  0  0  0  0
    0.0000   -2.3040    0.0000 N   0  0  0  0  0  0  0  0  0  0  0  0
    0.6656   -1.1497    0.0000 C   0  0  0  0  0  0  0  0  0  0  0  0
    1.9968   -1.1497    0.0000 C   0  0  0  0  0  0  0  0  0  0  0  0
    4.6545   -1.1497    0.0000 N   0  0  0  0  0  0  0  0  0  0  0  0
    3.9889    0.0000    0.0000 N   0  0  0  0  0  0  0  0  0  0  0  0
  1  2  2  0  0  0  0
  2  3  1  0  0  0  0
  2  9  1  0  0  0  0
  3  4  2  0  0  0  0
  3  8  1  0  0  0  0
  4  5  1  0  0  0  0
  5  6  2  0  0  0  0
  6  7  1  0  0  0  0
  7  8  2  0  0  0  0
  9 10  1  0  0  0  0
M  END
>  <ActivityOutcome_CPDBAS_Rat>
active

>  <cdk:Formula>
[]

>  <TD50_Rat_mmol>
1.09

>  <net.bioclipse.cdk.fingerprint>
AgiQAgACAAAMAACAgAAAAAAAAAAAAgAAAAAACCQAAABgAAAABAAAAAAAAQAIIAAAAAAAAABAAAAAAQAAAgEAgAEAAAAAAAAAAAAAAAAAgAAAAAIBAACAIAAAAIgAIABAIAAgAAAAAAAACAAAAAAAAACAWABAAAAAAACDAAA=

$$$$

 OpenBabel04131118512D

 10 10  0  0  0  0  0  0  0  0999 V2000
    0.8533   -4.5763    0.0000 C   0  0  0  0  0  0  0  0  0  0  0  0
    1.3109   -3.3274    0.0000 C   0  0  0  0  0  0  0  0  0  0  0  0
    1.3109   -1.9974    0.0000 C   0  0  0  0  0  0  0  0  0  0  0  0
    2.4645   -1.3300    0.0000 C   0  0  0  0  0  0  0  0  0  0  0  0
    3.6134   -1.9974    0.0000 C   0  0  0  0  0  0  0  0  0  0  0  0
    3.6134   -3.3274    0.0000 C   0  0  0  0  0  0  0  0  0  0  0  0
    4.7670   -3.9900    0.0000 O   0  0  0  0  0  0  0  0  0  0  0  0
    2.4645   -3.9900    0.0000 C   0  0  0  0  0  0  0  0  0  0  0  0
    2.4645    0.0000    0.0000 C   0  0  0  0  0  0  0  0  0  0  0  0
    0.0000   -3.0938    0.0000 C   0  0  0  0  0  0  0  0  0  0  0  0
  1  2  1  0  0  0  0
  2  3  1  0  0  0  0
  2  8  1  0  0  0  0
  2 10  1  0  0  0  0
  3  4  1  0  0  0  0
  4  5  2  0  0  0  0
  4  9  1  0  0  0  0
  5  6  1  0  0  0  0
  6  7  2  0  0  0  0
  6  8  1  0  0  0  0
M  END
>  <ActivityOutcome_CPDBAS_Rat>
active

>  <cdk:Formula>
[]

>  <TD50_Rat_mmol>
8.75

>  <net.bioclipse.cdk.fingerprint>
QAAAAAAAAAAAAAAAAAAAAAAAAoAEQABAAAAAQAAAAAEBAGAAAAAAAAAAAAAAAAAgAAAAAAAQAAAAACBAAAAAAAAAAQRAAAAAAAAAAAABAAAAAAAAAQAAAAAAAAAAAAAAAEAAAAAAAAAAAAAAEAABAAAAAACwCAAAAABABAAAIA==

$$$$

 OpenBabel04131118512D

 14 14  0  0  0  0  0  0  0  0999 V2000
    5.8349   -1.0293    0.0000 Cl  0  0  0  0  0  0  0  0  0  0  0  0
    4.5243   -1.2567    0.0000 C   0  0  0  0  0  0  0  0  0  0  0  0
    4.0694   -2.5075    0.0000 C   0  0  0  0  0  0  0  0  0  0  0  0
    2.7588   -2.7409    0.0000 N   0  0  0  0  0  0  0  0  0  0  0  0
    2.3040   -3.9916    0.0000 P   0  0  0  0  0  0  0  0  0  0  0  0
    3.6146   -4.2191    0.0000 O   0  0  0  0  0  0  0  0  0  0  0  0
    2.3040   -5.3202    0.0000 O   0  0  0  0  0  0  0  0  0  0  0  0
    1.1490   -5.9845    0.0000 C   0  0  0  0  0  0  0  0  0  0  0  0
    0.0000   -5.3202    0.0000 C   0  0  0  0  0  0  0  0  0  0  0  0
    0.0000   -3.9916    0.0000 C   0  0  0  0  0  0  0  0  0  0  0  0
    1.1490   -3.3274    0.0000 N   0  0  0  0  0  0  0  0  0  0  0  0
    1.1490   -1.9928    0.0000 C   0  0  0  0  0  0  0  0  0  0  0  0
    0.0000   -1.3286    0.0000 C   0  0  0  0  0  0  0  0  0  0  0  0
    0.0000    0.0000    0.0000 Cl  0  0  0  0  0  0  0  0  0  0  0  0
  1  2  1  0  0  0  0
  2  3  1  0  0  0  0
  3  4  1  0  0  0  0
  4  5  1  0  0  0  0
  5  6  2  0  0  0  0
  5  7  1  0  0  0  0
  5 11  1  0  0  0  0
  7  8  1  0  0  0  0
  8  9  1  0  0  0  0
  9 10  1  0  0  0  0
 10 11  1  0  0  0  0
 11 12  1  0  0  0  0
 12 13  1  0  0  0  0
 13 14  1  0  0  0  0
M  END
>  <ActivityOutcome_CPDBAS_Rat>
active

>  <cdk:Formula>
[]

>  <TD50_Rat_mmol>
0.00283

>  <net.bioclipse.cdk.fingerprint>
AhAAAAAAAAIBwAIAEQAAAAACAAACQAIAABAABAAACAApAeCABAAAAAAAAkAEABAgAhgBAgAAgAgAAEjAAKABAAJNGIAAgAAQAAAAAIQAgAAAAAogAAAAAAQQAAAAAABEAOAAEAAMDAAAAAAwBoAAAAAAEAIgQAIAAFhAEAOAAg==

$$$$

 OpenBabel04131118512D

  5  4  0  0  0  0  0  0  0  0999 V2000
    3.4567   -1.9945    0.0000 C   0  0  0  0  0  0  0  0  0  0  0  0
    2.3056   -1.3308    0.0000 C   0  0  0  0  0  0  0  0  0  0  0  0
    2.3056    0.0000    0.0000 C   0  0  0  0  0  0  0  0  0  0  0  0
    1.1511   -1.9945    0.0000 C   0  0  0  0  0  0  0  0  0  0  0  0
    0.0000   -1.3308    0.0000 C   0  0  0  0  0  0  0  0  0  0  0  0
  1  2  1  0  0  0  0
  2  3  2  0  0  0  0
  2  4  1  0  0  0  0
  4  5  2  0  0  0  0
M  END
>  <ActivityOutcome_CPDBAS_Rat>
active

>  <cdk:Formula>
[]

>  <TD50_Rat_mmol>
4.6

>  <net.bioclipse.cdk.fingerprint>
QAAAAAAAAAAAAAAAAAAAAAAAAAAEAAAAAAAEAAAAAAAAAEAAAAAAAAAAAAAAAAAgAAAAAAAQAAAAAABAAAAAAAAAAAAAAAAAAAAAAAAAAAAAAAAAAAAAAAAAAAAAAAAAAAAAAAAAAAAAAAAAAAAAAAAAAAAAAAAAAAAAAAAAAA==

$$$$

 OpenBabel04131118512D

 21 25  0  0  0  0  0  0  0  0999 V2000
    3.0763   -2.1906    0.0000 C   0  0  0  0  0  0  0  0  0  0  0  0
    4.7125   -3.8741    0.0000 C   0  0  0  0  0  0  0  0  0  0  0  0
    2.0351   -1.4536    0.0000 C   0  0  0  0  0  0  0  0  0  0  0  0
    3.6781   -3.1304    0.0000 C   0  0  0  0  0  0  0  0  0  0  0  0
    4.7125   -2.1906    0.0000 C   0  0  0  0  0  0  0  0  0  0  0  0
    3.6781   -1.4536    0.0000 C   0  0  0  0  0  0  0  0  0  0  0  0
    3.0763   -3.8741    0.0000 C   0  0  0  0  0  0  0  0  0  0  0  0
    2.0351   -3.1304    0.0000 C   0  0  0  0  0  0  0  0  0  0  0  0
    5.8416   -1.1359    0.0000 C   0  0  0  0  0  0  0  0  0  0  0  0
    1.0818   -4.0837    0.0000 C   0  0  0  0  0  0  0  0  0  0  0  0
    0.0000   -4.7531    0.0000 O   0  0  0  0  0  0  0  0  0  0  0  0
    1.4942   -0.8181    0.0000 Cl  0  0  0  0  0  0  0  0  0  0  0  0
    5.0844   -4.6652    0.0000 Cl  0  0  0  0  0  0  0  0  0  0  0  0
    4.3068   -2.7856    0.0000 Cl  0  0  0  0  0  0  0  0  0  0  0  0
    2.4002   -2.4813    0.0000 Cl  0  0  0  0  0  0  0  0  0  0  0  0
    5.5577   -2.5016    0.0000 Cl  0  0  0  0  0  0  0  0  0  0  0  0
    4.1446   -0.7032    0.0000 Cl  0  0  0  0  0  0  0  0  0  0  0  0
    3.4008   -4.7531    0.0000 Cl  0  0  0  0  0  0  0  0  0  0  0  0
    1.2440   -2.8600    0.0000 Cl  0  0  0  0  0  0  0  0  0  0  0  0
    6.2270    0.0000    0.0000 Cl  0  0  0  0  0  0  0  0  0  0  0  0
    6.7611   -1.8187    0.0000 Cl  0  0  0  0  0  0  0  0  0  0  0  0
  1  3  1  0  0  0  0
  1  5  1  0  0  0  0
  1  7  1  0  0  0  0
  1 15  1  0  0  0  0
  2  7  1  0  0  0  0
  2  4  1  0  0  0  0
  2 13  1  0  0  0  0
  2  5  1  0  0  0  0
  3  6  1  0  0  0  0
  3  8  1  0  0  0  0
  3 12  1  0  0  0  0
  4 14  1  0  0  0  0
  4  8  1  0  0  0  0
  4  6  1  0  0  0  0
  5  9  1  0  0  0  0
  5 16  1  0  0  0  0
  6 17  1  0  0  0  0
  6  9  1  0  0  0  0
  7 10  1  0  0  0  0
  7 18  1  0  0  0  0
  8 19  1  0  0  0  0
  8 10  1  0  0  0  0
  9 20  1  0  0  0  0
  9 21  1  0  0  0  0
 10 11  2  0  0  0  0
M  END
>  <ActivityOutcome_CPDBAS_Rat>
active

>  <cdk:Formula>
[]

>  <TD50_Rat_mmol>
0.00603

>  <net.bioclipse.cdk.fingerprint>
EAAEAAAAAAAAAAAAQAEAAAIAAAABAQDgAAAAAAAAAAAAAAAAoABgAA5BAACAAAIgQAAAAQAAAYQAAIAAQgAEAAAAAQAAAAAAAAAAAAAAACAAAAAAAABAAAAAQAAAAAAAABAAAQAAAAAAEAAAAAAAAAQAAAA=

$$$$

 OpenBabel04131118512D

 29 30  0  0  0  0  0  0  0  0999 V2000
    4.3962   -6.0190    0.0000 N   0  0  0  0  0  0  0  0  0  0  0  0
    4.3962   -4.7595    0.0000 C   0  0  0  0  0  0  0  0  0  0  0  0
    3.3062   -4.1055    0.0000 C   0  0  2  0  0  0  0  0  0  0  0  0
    2.1920   -6.0190    0.0000 C   0  0  0  0  0  0  0  0  0  0  0  0
    2.1920   -4.7595    0.0000 C   0  0  0  0  0  0  0  0  0  0  0  0
    6.5883   -6.0190    0.0000 C   0  0  0  0  0  0  0  0  0  0  0  0
    5.4862   -4.1055    0.0000 C   0  0  0  0  0  0  0  0  0  0  0  0
    6.5883   -4.7595    0.0000 C   0  0  0  0  0  0  0  0  0  0  0  0
    3.3062   -2.8460    0.0000 O   0  0  0  0  0  0  0  0  0  0  0  0
    5.4862   -2.8460    0.0000 C   0  0  0  0  0  0  0  0  0  0  0  0
    6.5883   -2.2042    0.0000 O   0  0  0  0  0  0  0  0  0  0  0  0
    2.1920   -2.2042    0.0000 C   0  0  0  0  0  0  0  0  0  0  0  0
    2.1920   -0.9446    0.0000 O   0  0  0  0  0  0  0  0  0  0  0  0
    1.0900   -2.8460    0.0000 C   0  0  0  0  0  0  0  0  0  0  0  0
    1.0900   -4.1055    0.0000 C   0  0  0  0  0  0  0  0  0  0  0  0
    0.0000   -2.2042    0.0000 C   0  0  0  0  0  0  0  0  0  0  0  0
    0.0000   -0.9446    0.0000 C   0  0  0  0  0  0  0  0  0  0  0  0
    7.6782   -2.8218    0.0000 C   0  0  0  0  0  0  0  0  0  0  0  0
    8.8045   -2.1920    0.0000 C   0  0  1  0  0  0  0  0  0  0  0  0
    7.6782   -4.1055    0.0000 O   0  0  0  0  0  0  0  0  0  0  0  0
    9.9066   -2.8218    0.0000 C   0  0  1  0  0  0  0  0  0  0  0  0
   11.0208   -2.1920    0.0000 O   0  0  0  0  0  0  0  0  0  0  0  0
    9.9066   -4.1055    0.0000 C   0  0  0  0  0  0  0  0  0  0  0  0
   12.1108   -2.8097    0.0000 C   0  0  0  0  0  0  0  0  0  0  0  0
    9.4464   -1.0900    0.0000 O   0  0  0  0  0  0  0  0  0  0  0  0
    8.1748   -1.0900    0.0000 C   0  0  0  0  0  0  0  0  0  0  0  0
    6.9152   -1.0900    0.0000 C   0  0  0  0  0  0  0  0  0  0  0  0
    8.8045    0.0000    0.0000 C   0  0  0  0  0  0  0  0  0  0  0  0
    7.2543   -0.1817    0.0000 O   0  0  0  0  0  0  0  0  0  0  0  0
  1  4  1  0  0  0  0
  1  6  1  0  0  0  0
  1  2  1  0  0  0  0
  2  3  1  0  0  0  0
  2  7  1  0  0  0  0
  3  5  1  0  0  0  0
  3  9  1  6  0  0  0
  4  5  1  0  0  0  0
  6  8  1  0  0  0  0
  7  8  2  0  0  0  0
  7 10  1  0  0  0  0
  9 12  1  0  0  0  0
 10 11  1  0  0  0  0
 11 18  1  0  0  0  0
 12 13  2  0  0  0  0
 12 14  1  0  0  0  0
 14 15  1  0  0  0  0
 14 16  2  0  0  0  0
 16 17  1  0  0  0  0
 18 19  1  0  0  0  0
 18 20  2  0  0  0  0
 19 21  1  0  0  0  0
 19 25  1  6  0  0  0
 19 26  1  0  0  0  0
 21 22  1  0  0  0  0
 21 23  1  1  0  0  0
 22 24  1  0  0  0  0
 26 27  1  0  0  0  0
 26 28  1  0  0  0  0
 26 29  1  0  0  0  0
M  END
>  <ActivityOutcome_CPDBAS_Rat>
active

>  <cdk:Formula>
[]

>  <TD50_Rat_mmol>
0.000945

>  <net.bioclipse.cdk.fingerprint>
AtCYBUkCAgBqAQiCBAMBQREUQgIABDEC4TAEAIMAACASAwBgRIwAAAACAAkIAADZbAYyBkSQEAIgAEAjwUAQQAAABAQOUgHAAAQAIVagUNgBAAhTIGBEUCAhMgQCAEIogQhIRwABAACBCAggQBAgB7UACYAE8HvACEpoRQBCACA=

$$$$

 OpenBabel04131118512D

 10 10  0  0  0  0  0  0  0  0999 V2000
    0.0000    0.0000    0.0000 C   0  0  0  0  0  0  0  0  0  0  0  0
    0.6640   -1.1546    0.0000 C   0  0  0  0  0  0  0  0  0  0  0  0
    0.0000   -2.3031    0.0000 C   0  0  0  0  0  0  0  0  0  0  0  0
    1.9921   -1.1546    0.0000 C   0  0  2  0  0  0  0  0  0  0  0  0
    2.6561    0.0000    0.0000 C   0  0  0  0  0  0  0  0  0  0  0  0
    3.9901    0.0000    0.0000 C   0  0  0  0  0  0  0  0  0  0  0  0
    4.6542   -1.1546    0.0000 C   0  0  0  0  0  0  0  0  0  0  0  0
    3.9901   -2.3031    0.0000 C   0  0  0  0  0  0  0  0  0  0  0  0
    2.6561   -2.3031    0.0000 C   0  0  0  0  0  0  0  0  0  0  0  0
    5.9822   -1.1546    0.0000 C   0  0  0  0  0  0  0  0  0  0  0  0
  1  2  1  0  0  0  0
  2  3  2  0  0  0  0
  4  2  1  6  0  0  0
  4  5  1  0  0  0  0
  4  9  1  0  0  0  0
  5  6  1  0  0  0  0
  6  7  1  0  0  0  0
  7  8  2  0  0  0  0
  7 10  1  0  0  0  0
  8  9  1  0  0  0  0
M  END
>  <ActivityOutcome_CPDBAS_Rat>
active

>  <cdk:Formula>
[]

>  <TD50_Rat_mmol>
1.5

>  <net.bioclipse.cdk.fingerprint>
QAAAAAAAAAAAAAAAAAAAAAAAAoAEQABAAAAAAAAAAAABCMAAIAAACAAAAAAAAAAgAAAAAAAQAAAAAABAAAQAAAAAABQAAAAAAAAAAAABAAAAAAAAAAAAAAAAAAAAAAAAAAAAAAAAAAAAAAAAEAAAAAAAAACACAAAAABCEAAAIA==

$$$$

 OpenBabel04131118512D

 26 28  0  0  0  0  0  0  0  0999 V2000
    3.9983   -6.0382    0.0000 C   0  0  0  0  0  0  0  0  0  0  0  0
    4.6674   -4.8958    0.0000 C   0  0  0  0  0  0  0  0  0  0  0  0
    2.6601   -6.0382    0.0000 C   0  0  0  0  0  0  0  0  0  0  0  0
    4.6674   -7.1805    0.0000 C   0  0  0  0  0  0  0  0  0  0  0  0
    5.9892   -4.8958    0.0000 C   0  0  0  0  0  0  0  0  0  0  0  0
    2.0073   -4.8958    0.0000 N   0  0  0  0  0  0  0  0  0  0  0  0
    5.9892   -7.1805    0.0000 C   0  0  0  0  0  0  0  0  0  0  0  0
    6.6583   -6.0382    0.0000 C   0  0  0  0  0  0  0  0  0  0  0  0
    6.6583   -3.7371    0.0000 O   0  0  0  0  0  0  0  0  0  0  0  0
    0.6691   -4.8958    0.0000 C   0  0  0  0  0  0  0  0  0  0  0  0
    2.6601   -3.7371    0.0000 C   0  0  0  0  0  0  0  0  0  0  0  0
    7.9802   -3.7371    0.0000 C   0  0  0  0  0  0  0  0  0  0  0  0
    0.0000   -3.7371    0.0000 C   0  0  0  0  0  0  0  0  0  0  0  0
    2.0073   -2.5785    0.0000 C   0  0  0  0  0  0  0  0  0  0  0  0
    8.6493   -2.5785    0.0000 C   0  0  0  0  0  0  0  0  0  0  0  0
    0.6691   -2.5785    0.0000 C   0  0  0  0  0  0  0  0  0  0  0  0
    9.9875   -2.5785    0.0000 C   0  0  0  0  0  0  0  0  0  0  0  0
   10.6403   -1.4361    0.0000 N   0  0  0  0  0  0  0  0  0  0  0  0
   11.9785   -1.4361    0.0000 C   0  0  0  0  0  0  0  0  0  0  0  0
   12.7618   -0.3590    0.0000 N   0  0  0  0  0  0  0  0  0  0  0  0
   12.7618   -2.4969    0.0000 N   0  0  0  0  0  0  0  0  0  0  0  0
   14.0347   -0.7507    0.0000 C   0  0  0  0  0  0  0  0  0  0  0  0
   14.0347   -2.0889    0.0000 N   0  0  0  0  0  0  0  0  0  0  0  0
   12.3375   -3.7861    0.0000 C   0  0  0  0  0  0  0  0  0  0  0  0
   15.0955    0.0000    0.0000 C   0  0  0  0  0  0  0  0  0  0  0  0
   16.3194   -0.5222    0.0000 O   0  0  0  0  0  0  0  0  0  0  0  0
  1  2  2  0  0  0  0
  1  3  1  0  0  0  0
  1  4  1  0  0  0  0
  2  5  1  0  0  0  0
  3  6  1  0  0  0  0
  4  7  2  0  0  0  0
  5  8  2  0  0  0  0
  5  9  1  0  0  0  0
  6 10  1  0  0  0  0
  6 11  1  0  0  0  0
  7  8  1  0  0  0  0
  9 12  1  0  0  0  0
 10 13  1  0  0  0  0
 11 14  1  0  0  0  0
 12 15  1  0  0  0  0
 13 16  1  0  0  0  0
 14 16  1  0  0  0  0
 15 17  1  0  0  0  0
 17 18  1  0  0  0  0
 18 19  1  0  0  0  0
 19 20  2  0  0  0  0
 19 21  1  0  0  0  0
 20 22  1  0  0  0  0
 21 23  1  0  0  0  0
 21 24  1  0  0  0  0
 22 25  1  0  0  0  0
 22 23  2  0  0  0  0
 25 26  1  0  0  0  0
M  END
>  <ActivityOutcome_CPDBAS_Rat>
active

>  <cdk:Formula>
[]

>  <TD50_Rat_mmol>
1.33

>  <net.bioclipse.cdk.fingerprint>
IQAQgyCYCgXWGEACADEpBAZkBAAAAAoIgAAEYAAIhCyAGUJhACABkIIAQAgABUAQIQIQJAKCgBFAIEQJwIgAIINGFCgVIAJAAQBiBSAEIICAQAACIAFAQCGgEBCAAIAALgAgAFIhpDQdCAAmWBAAAHACAgCAI0DhAAQAAEFiCAA=

$$$$

 OpenBabel04131118512D

 16 18  0  0  0  0  0  0  0  0999 V2000
    6.9407   -0.5434    0.0000 C   0  0  0  0  0  0  0  0  0  0  0  0
    5.9554   -1.4273    0.0000 N   0  0  0  0  0  0  0  0  0  0  0  0
    4.6513   -1.1519    0.0000 C   0  0  0  0  0  0  0  0  0  0  0  0
    3.9920   -2.3039    0.0000 C   0  0  0  0  0  0  0  0  0  0  0  0
    2.6589   -2.3039    0.0000 C   0  0  0  0  0  0  0  0  0  0  0  0
    1.9924   -3.4558    0.0000 N   0  0  0  0  0  0  0  0  0  0  0  0
    0.6665   -3.4558    0.0000 C   0  0  0  0  0  0  0  0  0  0  0  0
    0.0000   -2.3039    0.0000 C   0  0  0  0  0  0  0  0  0  0  0  0
    0.6665   -1.1519    0.0000 N   0  0  0  0  0  0  0  0  0  0  0  0
    1.9924   -1.1519    0.0000 C   0  0  0  0  0  0  0  0  0  0  0  0
    2.6589    0.0000    0.0000 C   0  0  0  0  0  0  0  0  0  0  0  0
    3.9920    0.0000    0.0000 C   0  0  0  0  0  0  0  0  0  0  0  0
    0.0000   -4.6078    0.0000 C   0  0  0  0  0  0  0  0  0  0  0  0
    4.8759   -3.2965    0.0000 N   0  0  0  0  0  0  0  0  0  0  0  0
    6.0930   -2.7531    0.0000 C   0  0  0  0  0  0  0  0  0  0  0  0
    7.2450   -3.4196    0.0000 N   0  0  0  0  0  0  0  0  0  0  0  0
  1  2  1  0  0  0  0
  2  3  1  0  0  0  0
  2 15  1  0  0  0  0
  3  4  2  0  0  0  0
  3 12  1  0  0  0  0
  4  5  1  0  0  0  0
  4 14  1  0  0  0  0
  5  6  2  0  0  0  0
  5 10  1  0  0  0  0
  6  7  1  0  0  0  0
  7  8  2  0  0  0  0
  7 13  1  0  0  0  0
  8  9  1  0  0  0  0
  9 10  2  0  0  0  0
 10 11  1  0  0  0  0
 11 12  2  0  0  0  0
 14 15  2  0  0  0  0
 15 16  1  0  0  0  0
M  END
>  <ActivityOutcome_CPDBAS_Rat>
active

>  <cdk:Formula>
[]

>  <TD50_Rat_mmol>
0.00778

>  <net.bioclipse.cdk.fingerprint>
SEACoZGiBQAIkiwGAyAIAAAIACaQACAQCAAQAAAIAAAAEGAAAECsgKAAAkEA4kwgAAgAKCAEAcAgAAECAABQgQAgAAQAZCAASQEFgECggAbgQIC0EQAZJDAwBGgCwQAhcIAQBCiIAUAkwAIChAOAACQAEIIIQAgABAACAAIBQg==

$$$$

 OpenBabel04131118512D

  9  9  0  0  0  0  0  0  0  0999 V2000
    0.0000   -2.3037    0.0000 N   0  0  0  0  0  0  0  0  0  0  0  0
    1.3315   -2.3037    0.0000 C   0  0  0  0  0  0  0  0  0  0  0  0
    1.9950   -1.1518    0.0000 N   0  0  0  0  0  0  0  0  0  0  0  0
    3.3265   -1.1518    0.0000 C   0  0  0  0  0  0  0  0  0  0  0  0
    3.9899   -2.3037    0.0000 N   0  0  0  0  0  0  0  0  0  0  0  0
    3.3265   -3.4555    0.0000 C   0  0  0  0  0  0  0  0  0  0  0  0
    1.9950   -3.4555    0.0000 N   0  0  0  0  0  0  0  0  0  0  0  0
    3.9899   -4.6073    0.0000 N   0  0  0  0  0  0  0  0  0  0  0  0
    3.9899    0.0000    0.0000 N   0  0  0  0  0  0  0  0  0  0  0  0
  1  2  1  0  0  0  0
  2  3  2  0  0  0  0
  2  7  1  0  0  0  0
  3  4  1  0  0  0  0
  4  5  2  0  0  0  0
  4  9  1  0  0  0  0
  5  6  1  0  0  0  0
  6  7  2  0  0  0  0
  6  8  1  0  0  0  0
M  END
>  <ActivityOutcome_CPDBAS_Rat>
active

>  <cdk:Formula>
[]

>  <TD50_Rat_mmol>
5.83

>  <net.bioclipse.cdk.fingerprint>
AgCAAgQAQAAAAAAAAAAAAAAAAAAAAAAAAAAAAAAAAABgAAAAAAAAAAAAAAAAAAAAAQAAAAAAAAAAAAAAAAAAAAAQAAAAAEAAAAAAAAAAAAAAAAEAACAAAAAAAAAAAAAAAAAAABAAAAAAEAAAAAAAAAAAABAAAAAAAAACAAI=

$$$$

 OpenBabel04131118512D

 19 19  0  0  0  0  0  0  0  0999 V2000
    0.0000   -2.3082    0.0000 O   0  0  0  0  0  0  0  0  0  0  0  0
    0.6595   -1.1488    0.0000 C   0  0  0  0  0  0  0  0  0  0  0  0
    0.0000    0.0000    0.0000 O   0  0  0  0  0  0  0  0  0  0  0  0
    1.9891   -1.1488    0.0000 C   0  0  1  0  0  0  0  0  0  0  0  0
    2.6592    0.0000    0.0000 N   0  0  0  0  0  0  0  0  0  0  0  0
    2.6592   -2.3082    0.0000 C   0  0  0  0  0  0  0  0  0  0  0  0
    3.9888   -2.3082    0.0000 C   0  0  0  0  0  0  0  0  0  0  0  0
    4.6589   -1.1488    0.0000 C   0  0  0  0  0  0  0  0  0  0  0  0
    5.9885   -1.1488    0.0000 C   0  0  0  0  0  0  0  0  0  0  0  0
    6.6480   -2.3082    0.0000 C   0  0  0  0  0  0  0  0  0  0  0  0
    5.9885   -3.4570    0.0000 C   0  0  0  0  0  0  0  0  0  0  0  0
    4.6589   -3.4570    0.0000 C   0  0  0  0  0  0  0  0  0  0  0  0
    7.9776   -2.3082    0.0000 N   0  0  0  0  0  0  0  0  0  0  0  0
    8.6477   -1.1488    0.0000 C   0  0  0  0  0  0  0  0  0  0  0  0
    9.9667   -1.1488    0.0000 C   0  0  0  0  0  0  0  0  0  0  0  0
   10.6368    0.0000    0.0000 Cl  0  0  0  0  0  0  0  0  0  0  0  0
    8.6477   -3.4570    0.0000 C   0  0  0  0  0  0  0  0  0  0  0  0
    9.9667   -3.4570    0.0000 C   0  0  0  0  0  0  0  0  0  0  0  0
   10.6368   -2.3082    0.0000 Cl  0  0  0  0  0  0  0  0  0  0  0  0
  1  2  1  0  0  0  0
  2  3  2  0  0  0  0
  2  4  1  0  0  0  0
  4  5  1  1  0  0  0
  4  6  1  0  0  0  0
  6  7  1  0  0  0  0
  7  8  1  0  0  0  0
  7 12  2  0  0  0  0
  8  9  2  0  0  0  0
  9 10  1  0  0  0  0
 10 11  2  0  0  0  0
 10 13  1  0  0  0  0
 11 12  1  0  0  0  0
 13 14  1  0  0  0  0
 13 17  1  0  0  0  0
 14 15  1  0  0  0  0
 15 16  1  0  0  0  0
 17 18  1  0  0  0  0
 18 19  1  0  0  0  0
M  END
>  <ActivityOutcome_CPDBAS_Rat>
active

>  <cdk:Formula>
[]

>  <TD50_Rat_mmol>
0.000307

>  <net.bioclipse.cdk.fingerprint>
EAAAAAGAIgACEgABQAAgCAIAAAAARSEAAAAABEBCCAAA4AAAAAAIBAAAAAAAmKAABEACAAIAQwAAIMAEAAFAFAwMAAIQABQAAgAggACQCAAEAQAAAAAAgBAAAACAACAAQABAIAAAACAAAkAQBAGQABwAhFIQBACAAAAAAhAA

$$$$

 OpenBabel04131118512D

 10 11  0  0  0  0  0  0  0  0999 V2000
    0.0000   -1.3294    0.0000 S   0  0  0  0  0  0  0  0  0  0  0  0
    1.3294   -1.3294    0.0000 C   0  0  0  0  0  0  0  0  0  0  0  0
    2.1134   -2.4032    0.0000 N   0  0  0  0  0  0  0  0  0  0  0  0
    3.3747   -1.9941    0.0000 C   0  0  0  0  0  0  0  0  0  0  0  0
    3.3747   -0.6647    0.0000 C   0  0  0  0  0  0  0  0  0  0  0  0
    4.5280    0.0000    0.0000 C   0  0  0  0  0  0  0  0  0  0  0  0
    5.6812   -0.6647    0.0000 C   0  0  0  0  0  0  0  0  0  0  0  0
    5.6812   -1.9941    0.0000 C   0  0  0  0  0  0  0  0  0  0  0  0
    4.5280   -2.6588    0.0000 C   0  0  0  0  0  0  0  0  0  0  0  0
    2.1134   -0.2500    0.0000 S   0  0  0  0  0  0  0  0  0  0  0  0
  1  2  1  0  0  0  0
  2  3  2  0  0  0  0
  2 10  1  0  0  0  0
  3  4  1  0  0  0  0
  4  5  2  0  0  0  0
  4  9  1  0  0  0  0
  5  6  1  0  0  0  0
  5 10  1  0  0  0  0
  6  7  2  0  0  0  0
  7  8  1  0  0  0  0
  8  9  2  0  0  0  0
M  END
>  <ActivityOutcome_CPDBAS_Rat>
active

>  <cdk:Formula>
[]

>  <TD50_Rat_mmol>
2.06

>  <net.bioclipse.cdk.fingerprint>
AIACAgCQAgDAAAAMAAAIAAEwAAAAAQAgAAAAAAQASAEBAAFgAAAAAAgAgAACIAAAIBAIAAAggABABoAAQAACAAFAAgAAAIAAAAEAAAAACEAICAAAgAAAAAAAICAQAAAAoEJAAAAgKAgQIBQCAACCAghBAAKgAAAAAIAIAAAAAAQ=

$$$$

 OpenBabel04131118512D

 14 16  0  0  0  0  0  0  0  0999 V2000
    4.4719   -3.1448    0.0000 O   0  0  0  0  0  0  0  0  0  0  0  0
    3.1448   -3.1448    0.0000 P   0  0  0  0  0  0  0  0  0  0  0  0
    3.1448   -4.4719    0.0000 N   0  0  0  0  0  0  0  0  0  0  0  0
    3.8115   -5.6229    0.0000 C   0  0  0  0  0  0  0  0  0  0  0  0
    2.4781   -5.6229    0.0000 C   0  0  0  0  0  0  0  0  0  0  0  0
    4.9625   -6.2896    0.0000 C   0  0  0  0  0  0  0  0  0  0  0  0
    1.8177   -3.1448    0.0000 N   0  0  0  0  0  0  0  0  0  0  0  0
    0.6667   -3.8115    0.0000 C   0  0  0  0  0  0  0  0  0  0  0  0
    0.6667   -2.4781    0.0000 C   0  0  0  0  0  0  0  0  0  0  0  0
    0.0000   -4.9625    0.0000 C   0  0  0  0  0  0  0  0  0  0  0  0
    3.1448   -1.8177    0.0000 N   0  0  0  0  0  0  0  0  0  0  0  0
    2.4781   -0.6667    0.0000 C   0  0  0  0  0  0  0  0  0  0  0  0
    3.8115   -0.6667    0.0000 C   0  0  0  0  0  0  0  0  0  0  0  0
    1.3271    0.0000    0.0000 C   0  0  0  0  0  0  0  0  0  0  0  0
  1  2  2  0  0  0  0
  2  3  1  0  0  0  0
  2  7  1  0  0  0  0
  2 11  1  0  0  0  0
  3  4  1  0  0  0  0
  3  5  1  0  0  0  0
  4  5  1  0  0  0  0
  4  6  1  0  0  0  0
  7  8  1  0  0  0  0
  7  9  1  0  0  0  0
  8  9  1  0  0  0  0
  8 10  1  0  0  0  0
 11 12  1  0  0  0  0
 11 13  1  0  0  0  0
 12 13  1  0  0  0  0
 12 14  1  0  0  0  0
M  END
>  <ActivityOutcome_CPDBAS_Rat>
active

>  <cdk:Formula>
[]

>  <TD50_Rat_mmol>
0.0207

>  <net.bioclipse.cdk.fingerprint>
BAAAAAACAAAAAAEAAAAAAAAAAgAAAAAAAAAAAAAAAQFgAAAAAAAAAAAAAAAAIAAAAQAAAAAAAAAAwAAgAAAADBAAAAAAAAAAAACAAIAAAAAAAAAAAAAAAAAAAAAABAAAABAADAQAAAAAAAQAAAAAAAAAIAACAAAIAAADAAA=

$$$$

 OpenBabel04131118512D

  7  7  0  0  0  0  0  0  0  0999 V2000
    2.1116   -3.4168    0.0000 N   0  0  0  0  0  0  0  0  0  0  0  0
    1.3291   -2.3405    0.0000 C   0  0  0  0  0  0  0  0  0  0  0  0
    2.1116   -1.2642    0.0000 N   0  0  0  0  0  0  0  0  0  0  0  0
    3.3758   -1.6742    0.0000 C   0  0  0  0  0  0  0  0  0  0  0  0
    3.3758   -3.0067    0.0000 C   0  0  0  0  0  0  0  0  0  0  0  0
    1.7015    0.0000    0.0000 C   0  0  0  0  0  0  0  0  0  0  0  0
    0.0000   -2.3405    0.0000 S   0  0  0  0  0  0  0  0  0  0  0  0
  1  2  1  0  0  0  0
  1  5  1  0  0  0  0
  2  3  1  0  0  0  0
  2  7  2  0  0  0  0
  3  4  1  0  0  0  0
  3  6  1  0  0  0  0
  4  5  2  0  0  0  0
M  END
>  <ActivityOutcome_CPDBAS_Rat>
active

>  <cdk:Formula>
[]

>  <TD50_Rat_mmol>
0.00999

>  <net.bioclipse.cdk.fingerprint>
AhAAQAAAAAAAAAAAAABAAAAgAAIAAAAAAABBYAAAAAAAAAAAAIgAAAAAAAAAABAAAAAgAIAAAAAAAAAAAAAAAAAAAAAAAAAAAAAAAAAAAAAAEAAAAAAAAAAAAAAAAAAAAAAAAAAAAAAAAEAAAgQAAAAAAQAAAgAA

$$$$

 OpenBabel04131118512D

 16 18  0  0  0  0  0  0  0  0999 V2000
    1.1500    0.0000    0.0000 N   0  0  0  0  0  0  0  0  0  0  0  0
    2.2999   -0.6644    0.0000 C   0  0  0  0  0  0  0  0  0  0  0  0
    2.2999   -1.9933    0.0000 C   0  0  0  0  0  0  0  0  0  0  0  0
    3.4584   -2.6577    0.0000 C   0  0  0  0  0  0  0  0  0  0  0  0
    4.6084   -1.9933    0.0000 C   0  0  0  0  0  0  0  0  0  0  0  0
    5.8690   -2.4021    0.0000 C   0  0  0  0  0  0  0  0  0  0  0  0
    6.6527   -1.3288    0.0000 C   0  0  0  0  0  0  0  0  0  0  0  0
    7.9730   -1.4651    0.0000 C   0  0  0  0  0  0  0  0  0  0  0  0
    8.5182   -2.6832    0.0000 C   0  0  0  0  0  0  0  0  0  0  0  0
    7.7345   -3.7565    0.0000 C   0  0  0  0  0  0  0  0  0  0  0  0
    6.4142   -3.6202    0.0000 C   0  0  0  0  0  0  0  0  0  0  0  0
    5.8690   -0.2470    0.0000 O   0  0  0  0  0  0  0  0  0  0  0  0
    4.6084   -0.6644    0.0000 C   0  0  0  0  0  0  0  0  0  0  0  0
    3.4584    0.0000    0.0000 C   0  0  0  0  0  0  0  0  0  0  0  0
    1.1500   -2.6577    0.0000 O   0  0  0  0  0  0  0  0  0  0  0  0
    0.0000   -1.9933    0.0000 C   0  0  0  0  0  0  0  0  0  0  0  0
  1  2  1  0  0  0  0
  2  3  2  0  0  0  0
  2 14  1  0  0  0  0
  3  4  1  0  0  0  0
  3 15  1  0  0  0  0
  4  5  2  0  0  0  0
  5  6  1  0  0  0  0
  5 13  1  0  0  0  0
  6  7  2  0  0  0  0
  6 11  1  0  0  0  0
  7  8  1  0  0  0  0
  7 12  1  0  0  0  0
  8  9  2  0  0  0  0
  9 10  1  0  0  0  0
 10 11  2  0  0  0  0
 12 13  1  0  0  0  0
 13 14  2  0  0  0  0
 15 16  1  0  0  0  0
M  END
>  <ActivityOutcome_CPDBAS_Rat>
active

>  <cdk:Formula>
[]

>  <TD50_Rat_mmol>
0.136

>  <net.bioclipse.cdk.fingerprint>
QQQAIAAgIAAACiAQgAEIAqAAAAAAQIQAAACQBAACAAACYQACAAAAAAAAAQIBAAAASCAAAAwAQAAAgACAAgEAChAAAAKAAICAAAQAEACAAAACAAAABAkAQAAAAAAAACAAQACQICggAAICAggAAgAABAAAggAAAEAAAABAIhSB

$$$$

 OpenBabel04131118512D

 10 10  0  0  0  0  0  0  0  0999 V2000
    3.9887    0.0000    0.0000 O   0  0  0  0  0  0  0  0  0  0  0  0
    3.3239   -1.1541    0.0000 C   0  0  0  0  0  0  0  0  0  0  0  0
    3.9887   -2.3081    0.0000 C   0  0  0  0  0  0  0  0  0  0  0  0
    3.3239   -3.4568    0.0000 C   0  0  0  0  0  0  0  0  0  0  0  0
    1.9943   -3.4568    0.0000 C   0  0  0  0  0  0  0  0  0  0  0  0
    1.3296   -2.3081    0.0000 C   0  0  0  0  0  0  0  0  0  0  0  0
    1.9943   -1.1541    0.0000 C   0  0  0  0  0  0  0  0  0  0  0  0
    1.3296    0.0000    0.0000 O   0  0  0  0  0  0  0  0  0  0  0  0
    0.0000    0.0000    0.0000 C   0  0  0  0  0  0  0  0  0  0  0  0
    5.3182   -2.3081    0.0000 O   0  0  0  0  0  0  0  0  0  0  0  0
  1  2  1  0  0  0  0
  2  3  2  0  0  0  0
  2  7  1  0  0  0  0
  3  4  1  0  0  0  0
  3 10  1  0  0  0  0
  4  5  2  0  0  0  0
  5  6  1  0  0  0  0
  6  7  2  0  0  0  0
  7  8  1  0  0  0  0
  8  9  1  0  0  0  0
M  END
>  <ActivityOutcome_CPDBAS_Rat>
active

>  <cdk:Formula>
[]

>  <TD50_Rat_mmol>
0.348

>  <net.bioclipse.cdk.fingerprint>
AgAAAAAAAAAACAAAAIAAAAAAAAAAAAACYQAAAgAIAABAAAAAAAAAACAAAAAAQAAAAAAAAAAABhAAAIAAAgAAAAQAAACAAAAAAAAAAAAAAAAAAAAAACAAAAAAICAgABAAAgAAAAAAAAAAgAAAAAAAAAAAIAAA

$$$$

 OpenBabel04131118512D

  9  9  0  0  0  0  0  0  0  0999 V2000
    0.0000    0.0000    0.0000 C   0  0  0  0  0  0  0  0  0  0  0  0
    0.6638   -1.1542    0.0000 O   0  0  0  0  0  0  0  0  0  0  0  0
    1.9915   -1.1542    0.0000 C   0  0  0  0  0  0  0  0  0  0  0  0
    2.6554    0.0000    0.0000 C   0  0  0  0  0  0  0  0  0  0  0  0
    3.9890    0.0000    0.0000 C   0  0  0  0  0  0  0  0  0  0  0  0
    4.6529   -1.1542    0.0000 C   0  0  0  0  0  0  0  0  0  0  0  0
    3.9890   -2.3025    0.0000 C   0  0  0  0  0  0  0  0  0  0  0  0
    2.6554   -2.3025    0.0000 C   0  0  0  0  0  0  0  0  0  0  0  0
    5.9806   -1.1542    0.0000 O   0  0  0  0  0  0  0  0  0  0  0  0
  1  2  1  0  0  0  0
  2  3  1  0  0  0  0
  3  4  2  0  0  0  0
  3  8  1  0  0  0  0
  4  5  1  0  0  0  0
  5  6  2  0  0  0  0
  6  7  1  0  0  0  0
  6  9  1  0  0  0  0
  7  8  2  0  0  0  0
M  END
>  <ActivityOutcome_CPDBAS_Rat>
active

>  <cdk:Formula>
[]

>  <TD50_Rat_mmol>
5.3

>  <net.bioclipse.cdk.fingerprint>
AgAAAAAAAAAAAAAAAIAAAAAAAAAAAAACYQAAAAAAAAAAAAAABAAAACAAAAAAQAAAAAAAAAAAAhAAAAAAAAAAAAQAAACAAAEAAAAAAAAAAAAAAAAAACAAAAAAICAgAAAAAgAAAAAAAAAAgAAAAAAAAAAAIAAA

$$$$

 OpenBabel04131118512D

 16 18  0  0  0  0  0  0  0  0999 V2000
    2.0454    0.0000    0.0000 C   0  0  0  0  0  0  0  0  0  0  0  0
    3.2008   -0.6636    0.0000 O   0  0  0  0  0  0  0  0  0  0  0  0
    3.2008   -1.9907    0.0000 C   0  0  0  0  0  0  0  0  0  0  0  0
    4.3484   -2.6543    0.0000 C   0  0  0  0  0  0  0  0  0  0  0  0
    4.3484   -3.9893    0.0000 C   0  0  0  0  0  0  0  0  0  0  0  0
    3.2008   -4.6528    0.0000 C   0  0  0  0  0  0  0  0  0  0  0  0
    2.0454   -3.9893    0.0000 C   0  0  0  0  0  0  0  0  0  0  0  0
    2.0454   -2.6543    0.0000 C   0  0  0  0  0  0  0  0  0  0  0  0
    0.7807   -2.2483    0.0000 O   0  0  0  0  0  0  0  0  0  0  0  0
    0.0000   -3.3257    0.0000 C   0  0  0  0  0  0  0  0  0  0  0  0
    0.7807   -4.3952    0.0000 C   0  0  0  0  0  0  0  0  0  0  0  0
    5.5038   -4.6528    0.0000 C   0  0  0  0  0  0  0  0  0  0  0  0
    6.6514   -3.9893    0.0000 C   0  0  0  0  0  0  0  0  0  0  0  0
    6.6514   -2.6543    0.0000 C   0  0  0  0  0  0  0  0  0  0  0  0
    7.8068   -1.9907    0.0000 O   0  0  0  0  0  0  0  0  0  0  0  0
    5.5038   -1.9907    0.0000 O   0  0  0  0  0  0  0  0  0  0  0  0
  1  2  1  0  0  0  0
  2  3  1  0  0  0  0
  3  4  2  0  0  0  0
  3  8  1  0  0  0  0
  4  5  1  0  0  0  0
  4 16  1  0  0  0  0
  5  6  2  0  0  0  0
  5 12  1  0  0  0  0
  6  7  1  0  0  0  0
  7  8  2  0  0  0  0
  7 11  1  0  0  0  0
  8  9  1  0  0  0  0
  9 10  1  0  0  0  0
 10 11  2  0  0  0  0
 12 13  2  0  0  0  0
 13 14  1  0  0  0  0
 14 15  2  0  0  0  0
 14 16  1  0  0  0  0
M  END
>  <ActivityOutcome_CPDBAS_Rat>
active

>  <cdk:Formula>
[]

>  <TD50_Rat_mmol>
0.15

>  <net.bioclipse.cdk.fingerprint>
AkABZRIAILYACBkDIFCAJB4CoIAMIKBAkAAAAIALAARiAA5hEMYAgIAACCgBCIHQ4ApIMCCwHgBAAQAZAIAMAgBGmCAQRogTAIMCBAAQAIAgAgJEAAhMCACAMPgKgsgAIQBEANEgKCBAErICSxAOAQEWEQCA8AgAEAAAAEAhNAE=

$$$$

 OpenBabel04131118512D

  6  5  0  0  0  0  0  0  0  0999 V2000
    1.3295    0.0000    0.0000 C   0  0  0  0  0  0  0  0  0  0  0  0
    0.0000    0.0000    0.0000 C   0  0  0  0  0  0  0  0  0  0  0  0
    3.3258   -1.1498    0.0000 N   0  3  0  0  0  0  0  0  0  0  0  0
    1.9963   -1.1498    0.0000 N   0  0  0  0  0  0  0  0  0  0  0  0
    3.9925    0.0000    0.0000 O   0  5  0  0  0  0  0  0  0  0  0  0
    3.9925   -2.3037    0.0000 C   0  0  0  0  0  0  0  0  0  0  0  0
  1  2  1  0  0  0  0
  1  4  1  0  0  0  0
  3  4  2  0  0  0  0
  3  5  1  0  0  0  0
  3  6  1  0  0  0  0
M  CHG  2   3   1   5  -1
M  END
>  <ActivityOutcome_CPDBAS_Rat>
active

>  <cdk:Formula>
[]

>  <TD50_Rat_mmol>
0.131

>  <net.bioclipse.cdk.fingerprint>
QAACAAAIAAAAAAAAAAAAAAAAAAAAAAAAAAAAAABgAAAAAAAAAAAAAAAAIAAAgAIAAAAgAAQAAAAgEAAAAAAAAAAAAAAAAAAAAAAAAAQAAAAAAAAAAAAAAAAAAAAAAAAAAAAAAAAAAAAAAAAAAAAAAAAAAAAQAAACAAA=

$$$$

 OpenBabel04131118512D

  6  5  0  0  0  0  0  0  0  0999 V2000
    1.8169   -2.3040    0.0000 C   0  0  0  0  0  0  0  0  0  0  0  0
    1.1503   -1.1537    0.0000 C   0  0  0  0  0  0  0  0  0  0  0  0
    2.3040   -0.4870    0.0000 O   0  0  0  0  0  0  0  0  0  0  0  0
    3.4542   -1.1537    0.0000 C   0  0  0  0  0  0  0  0  0  0  0  0
    0.0000   -1.8169    0.0000 C   0  0  0  0  0  0  0  0  0  0  0  0
    0.4870    0.0000    0.0000 C   0  0  0  0  0  0  0  0  0  0  0  0
  1  2  1  0  0  0  0
  2  3  1  0  0  0  0
  2  5  1  0  0  0  0
  2  6  1  0  0  0  0
  3  4  1  0  0  0  0
M  END
>  <ActivityOutcome_CPDBAS_Rat>
active

>  <cdk:Formula>
[]

>  <TD50_Rat_mmol>
7.96

>  <net.bioclipse.cdk.fingerprint>
AgAAAAAAAAAAAAAAAIAAAAAAAAAAAAAAYAAAAAAAAAAAAAAAACACAAAAAAAAAAAAAEAAAAAAAAAAAAAAAAAAAAAAAAAAAAAAAAAAAAAAABAAAAAAAAAAAAAAAAAAAAAAAAAAAAAAAAAAAAAAAAAAAAAAAAAA

$$$$

 OpenBabel04131118512D

  5  4  0  0  0  0  0  0  0  0999 V2000
    0.0000   -1.9945    0.0000 N   0  0  0  0  0  0  0  0  0  0  0  0
    1.1511   -1.3308    0.0000 C   0  0  0  0  0  0  0  0  0  0  0  0
    1.1511    0.0000    0.0000 O   0  0  0  0  0  0  0  0  0  0  0  0
    2.3056   -1.9945    0.0000 O   0  0  0  0  0  0  0  0  0  0  0  0
    3.4567   -1.3308    0.0000 C   0  0  0  0  0  0  0  0  0  0  0  0
  1  2  1  0  0  0  0
  2  3  2  0  0  0  0
  2  4  1  0  0  0  0
  4  5  1  0  0  0  0
M  END
>  <ActivityOutcome_CPDBAS_Rat>
active

>  <cdk:Formula>
[]

>  <TD50_Rat_mmol>
0.754

>  <net.bioclipse.cdk.fingerprint>
AgAAAAAAAAAAAAAAAIAAAACAAAAAAAAAYAAAAAAAAAAAAAAAAAAAAAAAAAAAAAAAAAAAAAAAAAAAAAAAAAAAAAAAAAAAAAAAAAAAAAAAAAEAAAAAAAAAQAAAAAAAAABAAAAAAAAAAAAAAEAAAAAAAAAAAgAA

$$$$

 OpenBabel04131118512D

 21 22  0  0  0  0  0  0  0  0999 V2000
    1.1532   -3.3246    0.0000 O   0  0  0  0  0  0  0  0  0  0  0  0
    1.1532   -1.9997    0.0000 C   0  0  0  0  0  0  0  0  0  0  0  0
    2.3064   -1.3249    0.0000 C   0  0  0  0  0  0  0  0  0  0  0  0
    3.4473   -0.6625    0.0000 C   0  0  0  0  0  0  0  0  0  0  0  0
    2.9689   -2.4781    0.0000 O   0  0  0  0  0  0  0  0  0  0  0  0
    4.2938   -2.4781    0.0000 C   0  0  0  0  0  0  0  0  0  0  0  0
    4.9563   -1.3249    0.0000 C   0  0  0  0  0  0  0  0  0  0  0  0
    6.2935   -1.3249    0.0000 C   0  0  0  0  0  0  0  0  0  0  0  0
    6.9560   -2.4781    0.0000 C   0  0  0  0  0  0  0  0  0  0  0  0
    6.2935   -3.6313    0.0000 C   0  0  0  0  0  0  0  0  0  0  0  0
    4.9563   -3.6313    0.0000 C   0  0  0  0  0  0  0  0  0  0  0  0
    8.2809   -2.4781    0.0000 C   0  0  0  0  0  0  0  0  0  0  0  0
    8.9434   -1.3249    0.0000 C   0  0  0  0  0  0  0  0  0  0  0  0
   10.2806   -1.3249    0.0000 C   0  0  0  0  0  0  0  0  0  0  0  0
   10.9431   -2.4781    0.0000 C   0  0  0  0  0  0  0  0  0  0  0  0
   10.2806   -3.6313    0.0000 C   0  0  0  0  0  0  0  0  0  0  0  0
    8.9434   -3.6313    0.0000 C   0  0  0  0  0  0  0  0  0  0  0  0
   12.2680   -2.4781    0.0000 Cl  0  0  0  0  0  0  0  0  0  0  0  0
    1.6316   -0.1840    0.0000 C   0  0  0  0  0  0  0  0  0  0  0  0
    0.0000   -1.3249    0.0000 O   0  0  0  0  0  0  0  0  0  0  0  0
    0.0000    0.0000    0.0000 C   0  0  0  0  0  0  0  0  0  0  0  0
  1  2  2  0  0  0  0
  2  3  1  0  0  0  0
  2 20  1  0  0  0  0
  3  4  1  0  0  0  0
  3  5  1  0  0  0  0
  3 19  1  0  0  0  0
  5  6  1  0  0  0  0
  6  7  2  0  0  0  0
  6 11  1  0  0  0  0
  7  8  1  0  0  0  0
  8  9  2  0  0  0  0
  9 10  1  0  0  0  0
  9 12  1  0  0  0  0
 10 11  2  0  0  0  0
 12 13  2  0  0  0  0
 12 17  1  0  0  0  0
 13 14  1  0  0  0  0
 14 15  2  0  0  0  0
 15 16  1  0  0  0  0
 15 18  1  0  0  0  0
 16 17  2  0  0  0  0
 20 21  1  0  0  0  0
M  END
>  <ActivityOutcome_CPDBAS_Rat>
active

>  <cdk:Formula>
[]

>  <TD50_Rat_mmol>
0.0157

>  <net.bioclipse.cdk.fingerprint>
BAAAAAAAAAAIBABCABAABAAAAAAEAAAAgAAAAYIAAIAAAALhAAAAAAAAAAwAQAAYIAIgKACABABAAAEIQAAAAwAGEAAAAAAAAQAABAAAAMAAEAgAAAACQIGhEAAIAMAQIABAAMQgJCEAAEECQAEAAYAAAAiA0CAAEAgoAAAiAAA=

$$$$

 OpenBabel04131118512D

 18 19  0  0  0  0  0  0  0  0999 V2000
    0.0000   -4.6031    0.0000 C   0  0  0  0  0  0  0  0  0  0  0  0
    0.6591   -3.4550    0.0000 N   0  0  0  0  0  0  0  0  0  0  0  0
    1.9879   -3.4550    0.0000 C   0  0  0  0  0  0  0  0  0  0  0  0
    2.6577   -2.2962    0.0000 C   0  0  0  0  0  0  0  0  0  0  0  0
    3.9865   -2.2962    0.0000 C   0  0  0  0  0  0  0  0  0  0  0  0
    4.6562   -3.4550    0.0000 C   0  0  0  0  0  0  0  0  0  0  0  0
    3.9865   -4.6031    0.0000 C   0  0  0  0  0  0  0  0  0  0  0  0
    2.6577   -4.6031    0.0000 C   0  0  0  0  0  0  0  0  0  0  0  0
    5.9851   -3.4550    0.0000 N   0  0  0  0  0  0  0  0  0  0  0  0
    6.6442   -2.2962    0.0000 N   0  0  0  0  0  0  0  0  0  0  0  0
    7.9730   -2.2962    0.0000 C   0  0  0  0  0  0  0  0  0  0  0  0
    8.6428   -1.1481    0.0000 C   0  0  0  0  0  0  0  0  0  0  0  0
    9.9610   -1.1481    0.0000 C   0  0  0  0  0  0  0  0  0  0  0  0
   10.6307   -2.2962    0.0000 C   0  0  0  0  0  0  0  0  0  0  0  0
    9.9610   -3.4550    0.0000 C   0  0  0  0  0  0  0  0  0  0  0  0
    8.6428   -3.4550    0.0000 C   0  0  0  0  0  0  0  0  0  0  0  0
   10.6307    0.0000    0.0000 C   0  0  0  0  0  0  0  0  0  0  0  0
    0.0000   -2.2962    0.0000 C   0  0  0  0  0  0  0  0  0  0  0  0
  1  2  1  0  0  0  0
  2  3  1  0  0  0  0
  2 18  1  0  0  0  0
  3  4  2  0  0  0  0
  3  8  1  0  0  0  0
  4  5  1  0  0  0  0
  5  6  2  0  0  0  0
  6  7  1  0  0  0  0
  6  9  1  0  0  0  0
  7  8  2  0  0  0  0
  9 10  2  0  0  0  0
 10 11  1  0  0  0  0
 11 12  2  0  0  0  0
 11 16  1  0  0  0  0
 12 13  1  0  0  0  0
 13 14  2  0  0  0  0
 13 17  1  0  0  0  0
 14 15  1  0  0  0  0
 15 16  2  0  0  0  0
M  END
>  <ActivityOutcome_CPDBAS_Rat>
active

>  <cdk:Formula>
[]

>  <TD50_Rat_mmol>
0.0137

>  <net.bioclipse.cdk.fingerprint>
QAAgAAAAAAAAAQIAAAABAABAEABACAAEQBIAAABoEAAAAAAAAAAAQEAAIAAEAAAAAgBAAAAIoAQAEEAEAAIAAAABoAAAAQAAAAAAAgAAAAAAAACgAAAAAIEAIAAAAEAgAAAgAAACQAAACABAAACAAAIAAAAQAAADEIA=

$$$$

 OpenBabel04131118512D

 12 12  0  0  0  0  0  0  0  0999 V2000
    3.9879   -2.3050    0.0000 C   0  0  0  0  0  0  0  0  0  0  0  0
    2.6559   -2.3050    0.0000 C   0  0  0  0  0  0  0  0  0  0  0  0
    1.9939   -1.1565    0.0000 C   0  0  0  0  0  0  0  0  0  0  0  0
    2.6559    0.0000    0.0000 C   0  0  0  0  0  0  0  0  0  0  0  0
    3.9879    0.0000    0.0000 C   0  0  0  0  0  0  0  0  0  0  0  0
    4.6499   -1.1565    0.0000 C   0  0  0  0  0  0  0  0  0  0  0  0
    5.9818   -1.1565    0.0000 N   0  0  0  0  0  0  0  0  0  0  0  0
    6.6438   -2.3050    0.0000 C   0  0  0  0  0  0  0  0  0  0  0  0
    6.6438    0.0000    0.0000 N   0  0  0  0  0  0  0  0  0  0  0  0
    7.9758    0.0000    0.0000 O   0  0  0  0  0  0  0  0  0  0  0  0
    0.6620   -1.1565    0.0000 N   0  0  0  0  0  0  0  0  0  0  0  0
    0.0000   -2.3050    0.0000 O   0  0  0  0  0  0  0  0  0  0  0  0
  1  2  2  0  0  0  0
  1  6  1  0  0  0  0
  2  3  1  0  0  0  0
  3  4  2  0  0  0  0
  3 11  1  0  0  0  0
  4  5  1  0  0  0  0
  5  6  2  0  0  0  0
  6  7  1  0  0  0  0
  7  8  1  0  0  0  0
  7  9  1  0  0  0  0
  9 10  2  0  0  0  0
 11 12  2  0  0  0  0
M  END
>  <ActivityOutcome_CPDBAS_Rat>
active

>  <cdk:Formula>
[]

>  <TD50_Rat_mmol>
0.00787

>  <net.bioclipse.cdk.fingerprint>
JAAACAACAAAgAAgAAAAAAEAAAIAAABhAEAABAAAESAYAAABgAA0AAAAAAEAAAAAAAAAFAAAAAgBABAAAgAQAAEAAAAAAAAAAAAAAAAAAAAAAAAAIIAAAAAAAAAAAAAAAIQAEIAAgAAAAACACAAAAAAAAAACAAAAAAAAAgIADEIA=

$$$$

 OpenBabel04131118512D

 10  9  0  0  0  0  0  0  0  0999 V2000
    3.4535    0.0000    0.0000 N   0  0  0  0  0  0  0  0  0  0  0  0
    3.4535   -1.3261    0.0000 C   0  0  0  0  0  0  0  0  0  0  0  0
    4.6069   -1.9961    0.0000 N   0  0  0  0  0  0  0  0  0  0  0  0
    5.7535   -1.3261    0.0000 N   0  0  0  0  0  0  0  0  0  0  0  0
    6.9070   -1.9961    0.0000 O   0  0  0  0  0  0  0  0  0  0  0  0
    4.6069   -3.3223    0.0000 C   0  0  0  0  0  0  0  0  0  0  0  0
    2.3000   -1.9961    0.0000 N   0  0  0  0  0  0  0  0  0  0  0  0
    1.1535   -1.3261    0.0000 N   0  3  0  0  0  0  0  0  0  0  0  0
    1.1535    0.0000    0.0000 O   0  0  0  0  0  0  0  0  0  0  0  0
    0.0000   -1.9961    0.0000 O   0  5  0  0  0  0  0  0  0  0  0  0
  1  2  2  0  0  0  0
  2  3  1  0  0  0  0
  2  7  1  0  0  0  0
  3  4  1  0  0  0  0
  3  6  1  0  0  0  0
  4  5  2  0  0  0  0
  7  8  1  0  0  0  0
  8  9  2  0  0  0  0
  8 10  1  0  0  0  0
M  CHG  2   8   1  10  -1
M  END
>  <ActivityOutcome_CPDBAS_Rat>
active

>  <cdk:Formula>
[]

>  <TD50_Rat_mmol>
0.00546

>  <net.bioclipse.cdk.fingerprint>
QABgEABIAAAAAAAAAAAAAAAAAIAAAAAAAAQEIABgAAADAAgAAAAAAAAAAAABAAZAAAAAAAAAgAAAAAAAAAAAAAAAAAAAAAAAAAAACAQAAAAAAAAAACIAAAAAAAAUIAAAAAAAAAAAAAAAAAAAAAAAAAAAAAAAAAADAAA=

$$$$

 OpenBabel04131118512D

 20 22  0  0  0  0  0  0  0  0999 V2000
    4.6527   -4.6048    0.0000 O   0  0  0  0  0  0  0  0  0  0  0  0
    3.9903   -3.4556    0.0000 C   0  0  0  0  0  0  0  0  0  0  0  0
    4.6527   -2.2984    0.0000 C   0  0  0  0  0  0  0  0  0  0  0  0
    5.9855   -2.2984    0.0000 C   0  0  0  0  0  0  0  0  0  0  0  0
    6.6479   -1.1492    0.0000 C   0  0  0  0  0  0  0  0  0  0  0  0
    5.9855    0.0000    0.0000 C   0  0  0  0  0  0  0  0  0  0  0  0
    4.6527    0.0000    0.0000 C   0  0  0  0  0  0  0  0  0  0  0  0
    3.9903   -1.1492    0.0000 C   0  0  0  0  0  0  0  0  0  0  0  0
    2.6576   -1.1492    0.0000 C   0  0  0  0  0  0  0  0  0  0  0  0
    1.9952    0.0000    0.0000 O   0  0  0  0  0  0  0  0  0  0  0  0
    1.9952   -2.2984    0.0000 C   0  0  0  0  0  0  0  0  0  0  0  0
    2.6576   -3.4556    0.0000 C   0  0  0  0  0  0  0  0  0  0  0  0
    1.9952   -4.6048    0.0000 C   0  0  0  0  0  0  0  0  0  0  0  0
    0.6624   -4.6048    0.0000 C   0  0  0  0  0  0  0  0  0  0  0  0
    0.0000   -3.4556    0.0000 C   0  0  0  0  0  0  0  0  0  0  0  0
    0.6624   -2.2984    0.0000 C   0  0  0  0  0  0  0  0  0  0  0  0
    7.9806   -1.1492    0.0000 C   0  0  0  0  0  0  0  0  0  0  0  0
    6.6479   -3.4556    0.0000 N   0  3  0  0  0  0  0  0  0  0  0  0
    7.9806   -3.4556    0.0000 O   0  0  0  0  0  0  0  0  0  0  0  0
    5.9855   -4.6048    0.0000 O   0  5  0  0  0  0  0  0  0  0  0  0
  1  2  2  0  0  0  0
  2  3  1  0  0  0  0
  2 12  1  0  0  0  0
  3  4  2  0  0  0  0
  3  8  1  0  0  0  0
  4  5  1  0  0  0  0
  4 18  1  0  0  0  0
  5  6  2  0  0  0  0
  5 17  1  0  0  0  0
  6  7  1  0  0  0  0
  7  8  2  0  0  0  0
  8  9  1  0  0  0  0
  9 10  2  0  0  0  0
  9 11  1  0  0  0  0
 11 12  2  0  0  0  0
 11 16  1  0  0  0  0
 12 13  1  0  0  0  0
 13 14  2  0  0  0  0
 14 15  1  0  0  0  0
 15 16  2  0  0  0  0
 18 19  2  0  0  0  0
 18 20  1  0  0  0  0
M  CHG  2  18   1  20  -1
M  END
>  <ActivityOutcome_CPDBAS_Rat>
active

>  <cdk:Formula>
[]

>  <TD50_Rat_mmol>
0.317

>  <net.bioclipse.cdk.fingerprint>
AwALECIAADIFoYgAgSABEAkAIAACGEAAAAAABAxsBnhAAGgBRhEGAIAAAQoAAwBwQARABwEBAEAFCBBAAAACABQZAQCAEEAAAAAIQADiAQgAAIDgAKAAQIAAAAAYgCAgAEwIQCEAAABCJiJAICQEIAAUIIYQCkEoQABGAAISAA==

$$$$

 OpenBabel04131118512D

 17 18  0  0  0  0  0  0  0  0999 V2000
    8.4390   -1.2718    0.0000 C   0  0  0  0  0  0  0  0  0  0  0  0
    9.7000   -1.6813    0.0000 N   0  0  0  0  0  0  0  0  0  0  0  0
    9.7000   -3.0070    0.0000 C   0  0  0  0  0  0  0  0  0  0  0  0
    8.4390   -3.4166    0.0000 C   0  0  0  0  0  0  0  0  0  0  0  0
    7.6522   -2.3388    0.0000 N   0  0  0  0  0  0  0  0  0  0  0  0
    6.3265   -2.3388    0.0000 N   0  0  0  0  0  0  0  0  0  0  0  0
    5.6583   -3.4920    0.0000 C   0  0  0  0  0  0  0  0  0  0  0  0
    4.3327   -3.4920    0.0000 C   0  0  0  0  0  0  0  0  0  0  0  0
    3.5567   -4.5698    0.0000 C   0  0  0  0  0  0  0  0  0  0  0  0
    2.2849   -4.1602    0.0000 C   0  0  0  0  0  0  0  0  0  0  0  0
    2.2849   -2.8346    0.0000 C   0  0  0  0  0  0  0  0  0  0  0  0
    3.5567   -2.4142    0.0000 O   0  0  0  0  0  0  0  0  0  0  0  0
    1.2179   -2.0478    0.0000 N   0  3  0  0  0  0  0  0  0  0  0  0
    0.0000   -2.5867    0.0000 O   0  0  0  0  0  0  0  0  0  0  0  0
    1.3580   -0.7221    0.0000 O   0  5  0  0  0  0  0  0  0  0  0  0
   10.7778   -3.7938    0.0000 C   0  0  0  0  0  0  0  0  0  0  0  0
    8.0294    0.0000    0.0000 O   0  0  0  0  0  0  0  0  0  0  0  0
  1  2  1  0  0  0  0
  1  5  1  0  0  0  0
  1 17  2  0  0  0  0
  2  3  1  0  0  0  0
  3  4  1  0  0  0  0
  3 16  1  0  0  0  0
  4  5  1  0  0  0  0
  5  6  1  0  0  0  0
  6  7  2  0  0  0  0
  7  8  1  0  0  0  0
  8  9  2  0  0  0  0
  8 12  1  0  0  0  0
  9 10  1  0  0  0  0
 10 11  2  0  0  0  0
 11 12  1  0  0  0  0
 11 13  1  0  0  0  0
 13 14  2  0  0  0  0
 13 15  1  0  0  0  0
M  CHG  2  13   1  15  -1
M  END
>  <ActivityOutcome_CPDBAS_Rat>
active

>  <cdk:Formula>
[]

>  <TD50_Rat_mmol>
0.0224

>  <net.bioclipse.cdk.fingerprint>
DhAAMAJBICMQEEoAAeIgAEooYAAAEuVQBADQQAQgJEBAIGAgBACCABICAAEAKYEggMAAAkAAQEsABgDABIASgAAQEAJgAAEAAgABUD2AgAAAA8AwChQAQIAAACAggQciBEQgFCQFDQIAMglAkDIAAADIpALQAEgAAAACIAMgIA==

$$$$

 OpenBabel04131118512D

 12 12  0  0  0  0  0  0  0  0999 V2000
    3.9920   -3.4593    0.0000 C   0  0  0  0  0  0  0  0  0  0  0  0
    2.6573   -3.4593    0.0000 C   0  0  0  0  0  0  0  0  0  0  0  0
    1.9930   -4.6084    0.0000 C   0  0  0  0  0  0  0  0  0  0  0  0
    0.6643   -4.6084    0.0000 C   0  0  0  0  0  0  0  0  0  0  0  0
    0.0000   -3.4593    0.0000 C   0  0  0  0  0  0  0  0  0  0  0  0
    0.6643   -2.3042    0.0000 C   0  0  0  0  0  0  0  0  0  0  0  0
    1.9930   -2.3042    0.0000 C   0  0  0  0  0  0  0  0  0  0  0  0
    4.6563   -4.6084    0.0000 O   0  0  0  0  0  0  0  0  0  0  0  0
    4.6563   -2.3042    0.0000 N   0  0  0  0  0  0  0  0  0  0  0  0
    3.9920   -1.1551    0.0000 N   0  0  0  0  0  0  0  0  0  0  0  0
    4.6563    0.0000    0.0000 O   0  0  0  0  0  0  0  0  0  0  0  0
    5.9850   -2.3042    0.0000 C   0  0  0  0  0  0  0  0  0  0  0  0
  1  2  1  0  0  0  0
  1  8  2  0  0  0  0
  1  9  1  0  0  0  0
  2  3  1  0  0  0  0
  2  7  2  0  0  0  0
  3  4  2  0  0  0  0
  4  5  1  0  0  0  0
  5  6  2  0  0  0  0
  6  7  1  0  0  0  0
  9 10  1  0  0  0  0
  9 12  1  0  0  0  0
 10 11  2  0  0  0  0
M  END
>  <ActivityOutcome_CPDBAS_Rat>
active

>  <cdk:Formula>
[]

>  <TD50_Rat_mmol>
0.0197

>  <net.bioclipse.cdk.fingerprint>
EAAAAAAAAABCAIAAAACIAAAgACAAAAAAAgAAAAQAACQBAABoAAACBAAAAAAAAAAAIAABBAACAABAAAAAgAAAAoAEAAAAAAAAAAAAABAAAIAAAAAAAAAAAAGAAAAAAIAAIABEIEAgAAAAgAACSAAAAEAAAhCAUghAAAAAAAADAAA=

$$$$

 OpenBabel04131118512D

 15 14  0  0  0  0  0  0  0  0999 V2000
    3.4524   -3.3258    0.0000 O   0  0  0  0  0  0  0  0  0  0  0  0
    8.0555   -2.0024    0.0000 C   0  0  0  0  0  0  0  0  0  0  0  0
   10.3571   -2.0024    0.0000 C   0  0  0  0  0  0  0  0  0  0  0  0
    6.9047   -1.3349    0.0000 C   0  0  0  0  0  0  0  0  0  0  0  0
    9.2063   -1.3349    0.0000 C   0  0  1  0  0  0  0  0  0  0  0  0
   11.5078   -1.3349    0.0000 O   0  0  0  0  0  0  0  0  0  0  0  0
    9.2063    0.0000    0.0000 N   0  0  0  0  0  0  0  0  0  0  0  0
    5.7539   -2.0024    0.0000 C   0  0  0  0  0  0  0  0  0  0  0  0
    4.6031   -1.3349    0.0000 N   0  0  0  0  0  0  0  0  0  0  0  0
   10.3571   -3.3258    0.0000 O   0  0  0  0  0  0  0  0  0  0  0  0
    3.4524   -2.0024    0.0000 C   0  0  0  0  0  0  0  0  0  0  0  0
    2.3016   -1.3349    0.0000 N   0  0  0  0  0  0  0  0  0  0  0  0
    1.1508   -2.0024    0.0000 N   0  0  0  0  0  0  0  0  0  0  0  0
    0.0000   -1.3349    0.0000 O   0  0  0  0  0  0  0  0  0  0  0  0
    2.3016    0.0000    0.0000 C   0  0  0  0  0  0  0  0  0  0  0  0
  1 11  2  0  0  0  0
  2  4  1  0  0  0  0
  2  5  1  0  0  0  0
  3  5  1  0  0  0  0
  3  6  1  0  0  0  0
  3 10  2  0  0  0  0
  4  8  1  0  0  0  0
  5  7  1  6  0  0  0
  8  9  1  0  0  0  0
  9 11  1  0  0  0  0
 11 12  1  0  0  0  0
 12 13  1  0  0  0  0
 12 15  1  0  0  0  0
 13 14  2  0  0  0  0
M  END
>  <ActivityOutcome_CPDBAS_Rat>
active

>  <cdk:Formula>
[]

>  <TD50_Rat_mmol>
0.00361

>  <net.bioclipse.cdk.fingerprint>
AwAIAAAAAhAASgABAAAAAAAAAAAABAAAAAAgAAAEBQEgYAAAAoAAAAAAAACBGCIAYQICAAAAAAAAYMAgAAKAAAAAAQAAQQAAAAAAACCAAQBAACCAQAAACBAAACAAAAAAZCAIARAAAAAAIAAQAAGgAEAAAFAQAAAAEAAKCwAA

$$$$

 OpenBabel04131118512D

  9  9  0  0  0  0  0  0  0  0999 V2000
    1.9976   -3.4550    0.0000 C   0  0  0  0  0  0  0  0  0  0  0  0
    0.6659   -3.4550    0.0000 C   0  0  0  0  0  0  0  0  0  0  0  0
    0.0000   -2.3049    0.0000 C   0  0  0  0  0  0  0  0  0  0  0  0
    0.6659   -1.1501    0.0000 C   0  0  0  0  0  0  0  0  0  0  0  0
    1.9976   -1.1501    0.0000 C   0  0  2  0  0  0  0  0  0  0  0  0
    2.6588   -2.3049    0.0000 N   0  0  0  0  0  0  0  0  0  0  0  0
    3.9905   -2.3049    0.0000 N   0  0  0  0  0  0  0  0  0  0  0  0
    4.6563   -3.4550    0.0000 O   0  0  0  0  0  0  0  0  0  0  0  0
    2.6588    0.0000    0.0000 C   0  0  0  0  0  0  0  0  0  0  0  0
  1  2  1  0  0  0  0
  1  6  1  0  0  0  0
  2  3  1  0  0  0  0
  3  4  1  0  0  0  0
  4  5  1  0  0  0  0
  5  6  1  0  0  0  0
  5  9  1  1  0  0  0
  6  7  1  0  0  0  0
  7  8  2  0  0  0  0
M  END
>  <ActivityOutcome_CPDBAS_Rat>
active

>  <cdk:Formula>
[]

>  <TD50_Rat_mmol>
0.159

>  <net.bioclipse.cdk.fingerprint>
EAAAAAAAAgAAAAABgAABAAAAABAAAEAAAAAAAAAEAQEAYAAAAAAAAAAAAAAAECAAEQAAAAAAAABAAMAAAAAAAAAAAAAAQAAAAAAAAACAAAAAACAAQAAAAAAAAAEAAABABCAAAQAIAAAIAAAQAAAAAAAAAAAAAAAAAAAACwAA

$$$$

 OpenBabel04131118512D

  9  9  0  0  0  0  0  0  0  0999 V2000
    1.9976   -3.4550    0.0000 C   0  0  0  0  0  0  0  0  0  0  0  0
    0.6659   -3.4550    0.0000 C   0  0  0  0  0  0  0  0  0  0  0  0
    0.0000   -2.3049    0.0000 C   0  0  0  0  0  0  0  0  0  0  0  0
    0.6659   -1.1501    0.0000 C   0  0  0  0  0  0  0  0  0  0  0  0
    1.9976   -1.1501    0.0000 C   0  0  1  0  0  0  0  0  0  0  0  0
    2.6588   -2.3049    0.0000 N   0  0  0  0  0  0  0  0  0  0  0  0
    3.9905   -2.3049    0.0000 N   0  0  0  0  0  0  0  0  0  0  0  0
    4.6563   -3.4550    0.0000 O   0  0  0  0  0  0  0  0  0  0  0  0
    2.6588    0.0000    0.0000 C   0  0  0  0  0  0  0  0  0  0  0  0
  1  2  1  0  0  0  0
  1  6  1  0  0  0  0
  2  3  1  0  0  0  0
  3  4  1  0  0  0  0
  4  5  1  0  0  0  0
  5  6  1  0  0  0  0
  5  9  1  6  0  0  0
  6  7  1  0  0  0  0
  7  8  2  0  0  0  0
M  END
>  <ActivityOutcome_CPDBAS_Rat>
active

>  <cdk:Formula>
[]

>  <TD50_Rat_mmol>
0.103

>  <net.bioclipse.cdk.fingerprint>
EAAAAAAAAgAAAAABgAABAAAAABAAAEAAAAAAAAAEAQEAYAAAAAAAAAAAAAAAECAAEQAAAAAAAABAAMAAAAAAAAAAAAAAQAAAAAAAAACAAAAAACAAQAAAAAAAAAEAAABABCAAAQAIAAAIAAAQAAAAAAAAAAAAAAAAAAAACwAA

$$$$

 OpenBabel04131118512D

  9  9  0  0  0  0  0  0  0  0999 V2000
    4.6539   -1.1542    0.0000 C   0  0  0  0  0  0  0  0  0  0  0  0
    3.9884   -2.3037    0.0000 C   0  0  0  0  0  0  0  0  0  0  0  0
    2.6574   -2.3037    0.0000 C   0  0  0  0  0  0  0  0  0  0  0  0
    1.9965   -1.1542    0.0000 C   0  0  0  0  0  0  0  0  0  0  0  0
    0.6655   -1.1542    0.0000 C   0  0  0  0  0  0  0  0  0  0  0  0
    0.0000   -2.3037    0.0000 O   0  0  0  0  0  0  0  0  0  0  0  0
    0.0000    0.0000    0.0000 C   0  0  0  0  0  0  0  0  0  0  0  0
    3.9884    0.0000    0.0000 C   0  0  0  0  0  0  0  0  0  0  0  0
    2.6574    0.0000    0.0000 C   0  0  0  0  0  0  0  0  0  0  0  0
  1  2  2  0  0  0  0
  1  8  1  0  0  0  0
  2  3  1  0  0  0  0
  3  4  2  0  0  0  0
  4  5  1  0  0  0  0
  4  9  1  0  0  0  0
  5  6  1  0  0  0  0
  5  7  1  0  0  0  0
  8  9  2  0  0  0  0
M  END
>  <ActivityOutcome_CPDBAS_Rat>
active

>  <cdk:Formula>
[]

>  <TD50_Rat_mmol>
3.75

>  <net.bioclipse.cdk.fingerprint>
AgAAAAAAAAAAAAAAAAAAAAAAAAAACAAAYAAAAAAAAAAAAAAAACAAAAAAAAAgQAAAAEAAAAAABAgAAAAAAAAAAAAAAAAAAAAAAAAAAAAAgBAAAACAACAAAABAIAQAAAAAAkAABAgAgBQAgAAAAAABAAAAAAAA

$$$$

 OpenBabel04131118512D

  9  9  0  0  0  0  0  0  0  0999 V2000
    0.0000   -2.6589    0.0000 O   0  0  0  0  0  0  0  0  0  0  0  0
    1.1520   -1.9953    0.0000 C   0  0  0  0  0  0  0  0  0  0  0  0
    1.1520   -0.6636    0.0000 C   0  0  0  0  0  0  0  0  0  0  0  0
    2.3041    0.0000    0.0000 C   0  0  0  0  0  0  0  0  0  0  0  0
    3.4561   -0.6636    0.0000 C   0  0  0  0  0  0  0  0  0  0  0  0
    3.4561   -1.9953    0.0000 C   0  0  0  0  0  0  0  0  0  0  0  0
    2.3041   -2.6589    0.0000 C   0  0  0  0  0  0  0  0  0  0  0  0
    4.6082   -2.6589    0.0000 C   0  0  0  0  0  0  0  0  0  0  0  0
    0.0000    0.0000    0.0000 O   0  0  0  0  0  0  0  0  0  0  0  0
  1  2  1  0  0  0  0
  2  3  2  0  0  0  0
  2  7  1  0  0  0  0
  3  4  1  0  0  0  0
  3  9  1  0  0  0  0
  4  5  2  0  0  0  0
  5  6  1  0  0  0  0
  6  7  2  0  0  0  0
  6  8  1  0  0  0  0
M  END
>  <ActivityOutcome_CPDBAS_Rat>
active

>  <cdk:Formula>
[]

>  <TD50_Rat_mmol>
2

>  <net.bioclipse.cdk.fingerprint>
AgAAAAAAAAAAAAAAAAAAAAAAAAAAAAACYQAAAICAAAAAAAAAACAAACAAAAAAQAAAAAAAAAAABAAAAAAAAgAAAAAAAACAABAAAAAAAAAAgAAAAACAACAAAABAICAAAAAAAkAAAAAAAAAAgAAAAAAAAAAAAAAA

$$$$

 OpenBabel04131118512D

 21 25  0  0  0  0  0  0  0  0999 V2000
    9.9762   -1.1572    0.0000 C   0  0  0  0  0  0  0  0  0  0  0  0
    8.6494   -1.1572    0.0000 C   0  0  0  0  0  0  0  0  0  0  0  0
    7.9809   -2.3045    0.0000 C   0  0  0  0  0  0  0  0  0  0  0  0
    6.6541   -2.3045    0.0000 C   0  0  0  0  0  0  0  0  0  0  0  0
    5.9857   -1.1572    0.0000 C   0  0  0  0  0  0  0  0  0  0  0  0
    4.6589   -1.1572    0.0000 C   0  0  0  0  0  0  0  0  0  0  0  0
    3.9905   -2.3045    0.0000 C   0  0  0  0  0  0  0  0  0  0  0  0
    4.6589   -3.4617    0.0000 C   0  0  0  0  0  0  0  0  0  0  0  0
    5.9857   -3.4617    0.0000 C   0  0  0  0  0  0  0  0  0  0  0  0
    7.0232   -4.2898    0.0000 C   0  0  0  0  0  0  0  0  0  0  0  0
    8.1805   -3.6214    0.0000 C   0  0  0  0  0  0  0  0  0  0  0  0
    3.9905   -4.6090    0.0000 C   0  0  0  0  0  0  0  0  0  0  0  0
    2.6636   -4.6090    0.0000 C   0  0  0  0  0  0  0  0  0  0  0  0
    1.9952   -3.4617    0.0000 C   0  0  0  0  0  0  0  0  0  0  0  0
    0.6684   -3.4617    0.0000 C   0  0  0  0  0  0  0  0  0  0  0  0
    0.0000   -2.3045    0.0000 C   0  0  0  0  0  0  0  0  0  0  0  0
    0.6684   -1.1572    0.0000 C   0  0  0  0  0  0  0  0  0  0  0  0
    1.9952   -1.1572    0.0000 C   0  0  0  0  0  0  0  0  0  0  0  0
    2.6636   -2.3045    0.0000 C   0  0  0  0  0  0  0  0  0  0  0  0
    6.6541    0.0000    0.0000 C   0  0  0  0  0  0  0  0  0  0  0  0
    7.9809    0.0000    0.0000 C   0  0  0  0  0  0  0  0  0  0  0  0
  1  2  1  0  0  0  0
  2  3  2  0  0  0  0
  2 21  1  0  0  0  0
  3  4  1  0  0  0  0
  3 11  1  0  0  0  0
  4  5  2  0  0  0  0
  4  9  1  0  0  0  0
  5  6  1  0  0  0  0
  5 20  1  0  0  0  0
  6  7  2  0  0  0  0
  7  8  1  0  0  0  0
  7 19  1  0  0  0  0
  8  9  2  0  0  0  0
  8 12  1  0  0  0  0
  9 10  1  0  0  0  0
 10 11  1  0  0  0  0
 12 13  2  0  0  0  0
 13 14  1  0  0  0  0
 14 15  2  0  0  0  0
 14 19  1  0  0  0  0
 15 16  1  0  0  0  0
 16 17  2  0  0  0  0
 17 18  1  0  0  0  0
 18 19  2  0  0  0  0
 20 21  2  0  0  0  0
M  END
>  <ActivityOutcome_CPDBAS_Rat>
active

>  <cdk:Formula>
[]

>  <TD50_Rat_mmol>
0.00183

>  <net.bioclipse.cdk.fingerprint>
EAAAAAAACAAAAAAAAAAAAAAAAAAECAAQQAAAAAAAAAAAAAAABDAAAAgAAAAAQAAAAECACAAAFAgAAACAAAQAAAgAAIAAACAEgIAAgAAAgAAEAAiAACAICABAIAAAAIAAAkAQBAAAABwggAAABEAAAAAAAQAA

$$$$

 OpenBabel04131118512D

 17 18  0  0  0  0  0  0  0  0999 V2000
    0.0000   -3.9880    0.0000 Cl  0  0  0  0  0  0  0  0  0  0  0  0
    1.1513   -3.3249    0.0000 C   0  0  0  0  0  0  0  0  0  0  0  0
    1.1513   -1.9894    0.0000 C   0  0  0  0  0  0  0  0  0  0  0  0
    2.3026   -1.3263    0.0000 C   0  0  0  0  0  0  0  0  0  0  0  0
    3.4538   -1.9894    0.0000 C   0  0  0  0  0  0  0  0  0  0  0  0
    3.4538   -3.3249    0.0000 C   0  0  0  0  0  0  0  0  0  0  0  0
    2.3026   -3.9880    0.0000 C   0  0  0  0  0  0  0  0  0  0  0  0
    4.6051   -3.9880    0.0000 C   0  0  0  0  0  0  0  0  0  0  0  0
    5.7564   -3.3249    0.0000 C   0  0  0  0  0  0  0  0  0  0  0  0
    5.7564   -1.9894    0.0000 C   0  0  0  0  0  0  0  0  0  0  0  0
    6.9076   -1.3263    0.0000 C   0  0  0  0  0  0  0  0  0  0  0  0
    8.0589   -1.9894    0.0000 C   0  0  0  0  0  0  0  0  0  0  0  0
    8.0589   -3.3249    0.0000 C   0  0  0  0  0  0  0  0  0  0  0  0
    6.9076   -3.9880    0.0000 C   0  0  0  0  0  0  0  0  0  0  0  0
    9.2102   -1.3263    0.0000 N   0  0  0  0  0  0  0  0  0  0  0  0
    6.9076    0.0000    0.0000 Cl  0  0  0  0  0  0  0  0  0  0  0  0
    0.0000   -1.3263    0.0000 N   0  0  0  0  0  0  0  0  0  0  0  0
  1  2  1  0  0  0  0
  2  3  2  0  0  0  0
  2  7  1  0  0  0  0
  3  4  1  0  0  0  0
  3 17  1  0  0  0  0
  4  5  2  0  0  0  0
  5  6  1  0  0  0  0
  6  7  2  0  0  0  0
  6  8  1  0  0  0  0
  8  9  1  0  0  0  0
  9 10  2  0  0  0  0
  9 14  1  0  0  0  0
 10 11  1  0  0  0  0
 11 12  2  0  0  0  0
 11 16  1  0  0  0  0
 12 13  1  0  0  0  0
 12 15  1  0  0  0  0
 13 14  2  0  0  0  0
M  END
>  <ActivityOutcome_CPDBAS_Rat>
active

>  <cdk:Formula>
[]

>  <TD50_Rat_mmol>
0.0722

>  <net.bioclipse.cdk.fingerprint>
AQAAAAAAAAAgAABAAIJAABABAAAAAABBCAAAAAAEAAIIAADgAAAAAgAAAAACAAAAIAAAACAAAABAAQAEQAAAAQAECAAAAAAAAAAAAAAAICAIAgAAAAAAAAGBAAAAAIAAIIAAAMAgBACAAAACQAAEAAEAFACAAABBAAAAAAACEAA=

$$$$

 OpenBabel04131118512D

 17 18  0  0  0  0  0  0  0  0999 V2000
    0.0000   -3.9880    0.0000 C   0  0  0  0  0  0  0  0  0  0  0  0
    1.1513   -3.3249    0.0000 C   0  0  0  0  0  0  0  0  0  0  0  0
    1.1513   -1.9894    0.0000 C   0  0  0  0  0  0  0  0  0  0  0  0
    2.3026   -1.3263    0.0000 C   0  0  0  0  0  0  0  0  0  0  0  0
    3.4538   -1.9894    0.0000 C   0  0  0  0  0  0  0  0  0  0  0  0
    3.4538   -3.3249    0.0000 C   0  0  0  0  0  0  0  0  0  0  0  0
    2.3026   -3.9880    0.0000 C   0  0  0  0  0  0  0  0  0  0  0  0
    4.6051   -3.9880    0.0000 C   0  0  0  0  0  0  0  0  0  0  0  0
    5.7564   -3.3249    0.0000 C   0  0  0  0  0  0  0  0  0  0  0  0
    5.7564   -1.9894    0.0000 C   0  0  0  0  0  0  0  0  0  0  0  0
    6.9076   -1.3263    0.0000 C   0  0  0  0  0  0  0  0  0  0  0  0
    8.0589   -1.9894    0.0000 C   0  0  0  0  0  0  0  0  0  0  0  0
    8.0589   -3.3249    0.0000 C   0  0  0  0  0  0  0  0  0  0  0  0
    6.9076   -3.9880    0.0000 C   0  0  0  0  0  0  0  0  0  0  0  0
    9.2102   -1.3263    0.0000 N   0  0  0  0  0  0  0  0  0  0  0  0
    6.9076    0.0000    0.0000 C   0  0  0  0  0  0  0  0  0  0  0  0
    0.0000   -1.3263    0.0000 N   0  0  0  0  0  0  0  0  0  0  0  0
  1  2  1  0  0  0  0
  2  3  2  0  0  0  0
  2  7  1  0  0  0  0
  3  4  1  0  0  0  0
  3 17  1  0  0  0  0
  4  5  2  0  0  0  0
  5  6  1  0  0  0  0
  6  7  2  0  0  0  0
  6  8  1  0  0  0  0
  8  9  1  0  0  0  0
  9 10  2  0  0  0  0
  9 14  1  0  0  0  0
 10 11  1  0  0  0  0
 11 12  2  0  0  0  0
 11 16  1  0  0  0  0
 12 13  1  0  0  0  0
 12 15  1  0  0  0  0
 13 14  2  0  0  0  0
M  END
>  <ActivityOutcome_CPDBAS_Rat>
active

>  <cdk:Formula>
[]

>  <TD50_Rat_mmol>
0.0326

>  <net.bioclipse.cdk.fingerprint>
IgCAAACAQAAQAQAAAAAAQQAAAAAEBAACCAAAYAAAAAIAAAAAAgAAAHAAAAAkAAAAQAEAAEAAAAAABAgAAAAAAAAAAAAAACAACAAAAAAAAAAAgAAAAACAACAAAABAIAAAAAAAAkAABAAgABQAggAAQQAAAAYAAhAA

$$$$

 OpenBabel04131118512D

  3  2  0  0  0  0  0  0  0  0999 V2000
    2.3030   -0.6656    0.0000 Cl  0  0  0  0  0  0  0  0  0  0  0  0
    1.1515    0.0000    0.0000 C   0  0  0  0  0  0  0  0  0  0  0  0
    0.0000   -0.6656    0.0000 Cl  0  0  0  0  0  0  0  0  0  0  0  0
  1  2  1  0  0  0  0
  2  3  1  0  0  0  0
M  END
>  <ActivityOutcome_CPDBAS_Rat>
active

>  <cdk:Formula>
[]

>  <TD50_Rat_mmol>
8.52

>  <net.bioclipse.cdk.fingerprint>
AMAAAAAAAAAAAAAAAAAAAAAABAAAAAAAAAAAAAABAAAAAAAAAAAAAAAAAAAAAAAAAAAAAAAAAAAAAAAAAAAAAAAAAAAAAAAAAAAAAAAAAAAAAAAAAAAAAAAAAAAAAA==

$$$$

 OpenBabel04131118512D

 19 20  0  0  0  0  0  0  0  0999 V2000
    5.7456    0.0000    0.0000 C   0  0  0  0  0  0  0  0  0  0  0  0
    6.8970   -0.6678    0.0000 C   0  0  0  0  0  0  0  0  0  0  0  0
    6.8970   -2.0035    0.0000 C   0  0  0  0  0  0  0  0  0  0  0  0
    8.0599    0.0000    0.0000 C   0  0  0  0  0  0  0  0  0  0  0  0
    8.0599   -2.6598    0.0000 C   0  0  0  0  0  0  0  0  0  0  0  0
    9.2113   -0.6678    0.0000 C   0  0  0  0  0  0  0  0  0  0  0  0
    9.2113   -2.0035    0.0000 C   0  0  0  0  0  0  0  0  0  0  0  0
   10.3628   -2.6598    0.0000 N   0  0  0  0  0  0  0  0  0  0  0  0
   11.5142   -2.0035    0.0000 C   0  0  0  0  0  0  0  0  0  0  0  0
   10.3628   -3.9839    0.0000 C   0  0  0  0  0  0  0  0  0  0  0  0
    4.6172   -0.6678    0.0000 C   0  0  0  0  0  0  0  0  0  0  0  0
    3.4543    0.0000    0.0000 C   0  0  0  0  0  0  0  0  0  0  0  0
    4.6172   -2.0035    0.0000 C   0  0  0  0  0  0  0  0  0  0  0  0
    2.3028   -0.6678    0.0000 C   0  0  0  0  0  0  0  0  0  0  0  0
    3.4543   -2.6598    0.0000 C   0  0  0  0  0  0  0  0  0  0  0  0
    2.3028   -2.0035    0.0000 C   0  0  0  0  0  0  0  0  0  0  0  0
    1.1514   -2.6598    0.0000 N   0  0  0  0  0  0  0  0  0  0  0  0
    1.1514   -3.9839    0.0000 C   0  0  0  0  0  0  0  0  0  0  0  0
    0.0000   -2.0035    0.0000 C   0  0  0  0  0  0  0  0  0  0  0  0
  1  2  1  0  0  0  0
  1 11  1  0  0  0  0
  2  3  2  0  0  0  0
  2  4  1  0  0  0  0
  3  5  1  0  0  0  0
  4  6  2  0  0  0  0
  5  7  2  0  0  0  0
  6  7  1  0  0  0  0
  7  8  1  0  0  0  0
  8  9  1  0  0  0  0
  8 10  1  0  0  0  0
 11 12  2  0  0  0  0
 11 13  1  0  0  0  0
 12 14  1  0  0  0  0
 13 15  2  0  0  0  0
 14 16  2  0  0  0  0
 15 16  1  0  0  0  0
 16 17  1  0  0  0  0
 17 18  1  0  0  0  0
 17 19  1  0  0  0  0
M  END
>  <ActivityOutcome_CPDBAS_Rat>
active

>  <cdk:Formula>
[]

>  <TD50_Rat_mmol>
0.0645

>  <net.bioclipse.cdk.fingerprint>
AQAgAAAAAIBAABABAAAAAABBAAAAAAAEQAIIAABgAAAAAgAAAAACAAAAIAAEACAAAgBAAQAAwAQAAEAECAAAABAAAAAAAAAAIAAIAAAAAAAAAACAAAAAAIAAIAAAAEAgAAAAAAACQAAEAAAAFACAAABBAAAAQAACEAA=

$$$$

 OpenBabel04131118512D

  6  5  0  0  0  0  0  0  0  0999 V2000
    3.9905   -2.3025    0.0000 C   0  0  0  0  0  0  0  0  0  0  0  0
    3.3240   -1.1492    0.0000 C   0  0  0  0  0  0  0  0  0  0  0  0
    1.9952   -1.1492    0.0000 C   0  0  0  0  0  0  0  0  0  0  0  0
    1.3288    0.0000    0.0000 C   0  0  0  0  0  0  0  0  0  0  0  0
    1.3288   -2.3025    0.0000 N   0  0  0  0  0  0  0  0  0  0  0  0
    0.0000   -2.3025    0.0000 O   0  0  0  0  0  0  0  0  0  0  0  0
  1  2  1  0  0  0  0
  2  3  1  0  0  0  0
  3  4  1  0  0  0  0
  3  5  2  0  0  0  0
  5  6  1  0  0  0  0
M  END
>  <ActivityOutcome_CPDBAS_Rat>
active

>  <cdk:Formula>
[]

>  <TD50_Rat_mmol>
0.855

>  <net.bioclipse.cdk.fingerprint>
CEAAAAAACAAAAAAAAAAAAAAAAAAAAAAAAAAAAAAAYAAAAAAAAAAAAAAAACAgAAAAAAAAAAAAAEAAAAAAAAAAAAABAAAAAAAAAAAAAAABAAAAAAAAAAAAAAAAAAAAAAAAAAAAAAAAAAAQAIAAAAAAAAAAAAAAAAAAAAAA

$$$$

 OpenBabel04131118512D

 13 13  0  0  0  0  0  0  0  0999 V2000
    1.9945    0.0000    0.0000 O   0  0  0  0  0  0  0  0  0  0  0  0
    0.6622    0.0000    0.0000 C   0  0  0  0  0  0  0  0  0  0  0  0
    2.6567   -1.1488    0.0000 C   0  0  0  0  0  0  0  0  0  0  0  0
    3.9890   -1.1488    0.0000 C   0  0  0  0  0  0  0  0  0  0  0  0
    4.6512   -2.3057    0.0000 C   0  0  0  0  0  0  0  0  0  0  0  0
    5.9836   -2.3057    0.0000 C   0  0  0  0  0  0  0  0  0  0  0  0
    6.6457   -3.4545    0.0000 C   0  0  0  0  0  0  0  0  0  0  0  0
    7.9781   -3.4545    0.0000 C   0  0  0  0  0  0  0  0  0  0  0  0
    3.9890   -3.4545    0.0000 C   0  0  0  0  0  0  0  0  0  0  0  0
    2.6567   -3.4545    0.0000 C   0  0  0  0  0  0  0  0  0  0  0  0
    1.9945   -2.3057    0.0000 C   0  0  0  0  0  0  0  0  0  0  0  0
    0.6622   -2.3057    0.0000 O   0  0  0  0  0  0  0  0  0  0  0  0
    0.0000   -3.4545    0.0000 C   0  0  0  0  0  0  0  0  0  0  0  0
  1  2  1  0  0  0  0
  1  3  1  0  0  0  0
  3  4  2  0  0  0  0
  3 11  1  0  0  0  0
  4  5  1  0  0  0  0
  5  6  1  0  0  0  0
  5  9  2  0  0  0  0
  6  7  1  0  0  0  0
  7  8  2  0  0  0  0
  9 10  1  0  0  0  0
 10 11  2  0  0  0  0
 11 12  1  0  0  0  0
 12 13  1  0  0  0  0
M  END
>  <ActivityOutcome_CPDBAS_Rat>
active

>  <cdk:Formula>
[]

>  <TD50_Rat_mmol>
0.111

>  <net.bioclipse.cdk.fingerprint>
QAIAAAAAAAAIAAIAAAAAAAAAACgFAACAAAIAAAAACAgAAmEAAACAgAAAAAAAAAAgAAQgQAAQAEAAACBAAAAAAAYYAAAAAAIAAAIEAAAAgAAQAAAAAAAAAIAAAAAAgAAgAAIAQCAgIAIQAAJECAQCAgAUAIAAIAAAAAAAICAAAA==

$$$$

 OpenBabel04131118512D

  6  6  0  0  0  0  0  0  0  0999 V2000
    0.0000   -1.0738    0.0000 C   0  0  0  0  0  0  0  0  0  0  0  0
    1.3304   -1.0738    0.0000 C   0  0  0  0  0  0  0  0  0  0  0  0
    2.1104    0.0000    0.0000 N   0  0  0  0  0  0  0  0  0  0  0  0
    3.3767   -0.4086    0.0000 C   0  0  0  0  0  0  0  0  0  0  0  0
    3.3767   -1.7390    0.0000 C   0  0  0  0  0  0  0  0  0  0  0  0
    2.1104   -2.1509    0.0000 N   0  0  0  0  0  0  0  0  0  0  0  0
  1  2  1  0  0  0  0
  2  3  2  0  0  0  0
  2  6  1  0  0  0  0
  3  4  1  0  0  0  0
  4  5  2  0  0  0  0
  5  6  1  0  0  0  0
M  END
>  <ActivityOutcome_CPDBAS_Rat>
active

>  <cdk:Formula>
[]

>  <TD50_Rat_mmol>
10.6

>  <net.bioclipse.cdk.fingerprint>
AgCAAgEAAAAgAAAAAAAAAAAAAAAAAAAAAAAAAAAAAABgAAAAAIAAAAAAAAAAIAAAAAAAAABAAAAAAAAAAAEAAAAEAAAAAAAAAAAAAAAAAAAAAAAAACAAAAAAAIAAAAAAEAAAAAAAAAAAAAABAAAAAAAAAAAAAAAAAAAAAAI=

$$$$

 OpenBabel04131118512D

  5  4  0  0  0  0  0  0  0  0999 V2000
    0.0000   -1.3308    0.0000 C   0  0  0  0  0  0  0  0  0  0  0  0
    1.1511   -1.9945    0.0000 N   0  0  0  0  0  0  0  0  0  0  0  0
    2.3056   -1.3308    0.0000 N   0  3  0  0  0  0  0  0  0  0  0  0
    2.3056    0.0000    0.0000 O   0  0  0  0  0  0  0  0  0  0  0  0
    3.4567   -1.9945    0.0000 O   0  5  0  0  0  0  0  0  0  0  0  0
  1  2  1  0  0  0  0
  2  3  1  0  0  0  0
  3  4  2  0  0  0  0
  3  5  1  0  0  0  0
M  CHG  2   3   1   5  -1
M  END
>  <ActivityOutcome_CPDBAS_Rat>
active

>  <cdk:Formula>
[]

>  <TD50_Rat_mmol>
0.229

>  <net.bioclipse.cdk.fingerprint>
CAAAAAAAAAAAAAAAAAAAAAAAAAAEAAAAYAAAAQAAAAAAAAAAAAAAAQAEAAAAAAAAAAAAAAAAAAAAAAAAAAAAAAAAAAAAAAAAAAAAAAAAAAAAAAAAAAAABCAAAAAAAAAAAAAAAAAAAAAAAAAAAAAAAAAAAwAA

$$$$

 OpenBabel04131118512D

 15 15  0  0  0  0  0  0  0  0999 V2000
    3.4524   -2.6644    0.0000 C   0  0  0  0  0  0  0  0  0  0  0  0
    4.6032   -2.0009    0.0000 C   0  0  0  0  0  0  0  0  0  0  0  0
    5.7643   -2.6644    0.0000 C   0  0  0  0  0  0  0  0  0  0  0  0
    6.9151   -2.0009    0.0000 C   0  0  0  0  0  0  0  0  0  0  0  0
    8.0659   -2.6644    0.0000 N   0  0  0  0  0  0  0  0  0  0  0  0
    9.2167   -2.0009    0.0000 N   0  0  0  0  0  0  0  0  0  0  0  0
   10.3675   -2.6644    0.0000 O   0  0  0  0  0  0  0  0  0  0  0  0
    8.0659   -3.9915    0.0000 C   0  0  0  0  0  0  0  0  0  0  0  0
    3.4524   -3.9915    0.0000 O   0  0  0  0  0  0  0  0  0  0  0  0
    2.3016   -2.0009    0.0000 C   0  0  0  0  0  0  0  0  0  0  0  0
    1.1508   -2.6644    0.0000 C   0  0  0  0  0  0  0  0  0  0  0  0
    0.0000   -2.0009    0.0000 N   0  0  0  0  0  0  0  0  0  0  0  0
    0.0000   -0.6635    0.0000 C   0  0  0  0  0  0  0  0  0  0  0  0
    1.1508    0.0000    0.0000 C   0  0  0  0  0  0  0  0  0  0  0  0
    2.3016   -0.6635    0.0000 C   0  0  0  0  0  0  0  0  0  0  0  0
  1  2  1  0  0  0  0
  1  9  1  0  0  0  0
  1 10  1  0  0  0  0
  2  3  1  0  0  0  0
  3  4  1  0  0  0  0
  4  5  1  0  0  0  0
  5  6  1  0  0  0  0
  5  8  1  0  0  0  0
  6  7  2  0  0  0  0
 10 11  1  0  0  0  0
 10 15  2  0  0  0  0
 11 12  2  0  0  0  0
 12 13  1  0  0  0  0
 13 14  2  0  0  0  0
 14 15  1  0  0  0  0
M  END
>  <ActivityOutcome_CPDBAS_Rat>
active

>  <cdk:Formula>
[]

>  <TD50_Rat_mmol>
0.000492

>  <net.bioclipse.cdk.fingerprint>
CiCQAgACAIAeAAGAAAEAAAAAEACAAAAAIAAACFQBAQFgAAAQAASAhQAAAAQYIgALAABAACBAAAAAwAAAAAEIAAAAAABAAAEAAEIAAIAAgAAEIABAAACgMAAAAIAAIEDEIgA5BAgAAAIgQBAEAIqQHKCAABAEAAAAAAADoKA=

$$$$

 OpenBabel04131118512D

 15 15  0  0  0  0  0  0  0  0999 V2000
    3.4524   -3.9915    0.0000 O   0  0  0  0  0  0  0  0  0  0  0  0
    3.4524   -2.6644    0.0000 C   0  0  0  0  0  0  0  0  0  0  0  0
    2.3016   -2.0009    0.0000 C   0  0  0  0  0  0  0  0  0  0  0  0
    1.1508   -2.6644    0.0000 C   0  0  0  0  0  0  0  0  0  0  0  0
    0.0000   -2.0009    0.0000 C   0  0  0  0  0  0  0  0  0  0  0  0
    0.0000   -0.6635    0.0000 C   0  0  0  0  0  0  0  0  0  0  0  0
    1.1508    0.0000    0.0000 N   0  0  0  0  0  0  0  0  0  0  0  0
    2.3016   -0.6635    0.0000 C   0  0  0  0  0  0  0  0  0  0  0  0
    4.6032   -2.0009    0.0000 C   0  0  0  0  0  0  0  0  0  0  0  0
    5.7643   -2.6644    0.0000 C   0  0  0  0  0  0  0  0  0  0  0  0
    6.9151   -2.0009    0.0000 C   0  0  0  0  0  0  0  0  0  0  0  0
    8.0659   -2.6644    0.0000 N   0  0  0  0  0  0  0  0  0  0  0  0
    9.2167   -2.0009    0.0000 N   0  0  0  0  0  0  0  0  0  0  0  0
   10.3675   -2.6644    0.0000 O   0  0  0  0  0  0  0  0  0  0  0  0
    8.0659   -3.9915    0.0000 C   0  0  0  0  0  0  0  0  0  0  0  0
  1  2  2  0  0  0  0
  2  3  1  0  0  0  0
  2  9  1  0  0  0  0
  3  4  2  0  0  0  0
  3  8  1  0  0  0  0
  4  5  1  0  0  0  0
  5  6  2  0  0  0  0
  6  7  1  0  0  0  0
  7  8  2  0  0  0  0
  9 10  1  0  0  0  0
 10 11  1  0  0  0  0
 11 12  1  0  0  0  0
 12 13  1  0  0  0  0
 12 15  1  0  0  0  0
 13 14  2  0  0  0  0
M  END
>  <ActivityOutcome_CPDBAS_Rat>
active

>  <cdk:Formula>
[]

>  <TD50_Rat_mmol>
0.000482

>  <net.bioclipse.cdk.fingerprint>
CiCQAgACAYAcAAGAAAEAAAAAEACAAAAAIAAACFQFAQFoAEAQBACAAQAAAAQYIgAJAABBAABAAAAgwAAAAAEIAAAAAABAAAEAAEIAAIAEgAAAIABAAAC0MAAAAIAAIEDEIgAxAAgAAAIgQBAEAQgQHCCAEABEAAAAAACDoKE=

$$$$

 OpenBabel04131118512D

  6  5  0  0  0  0  0  0  0  0999 V2000
    0.0000   -1.1544    0.0000 N   0  0  0  0  0  0  0  0  0  0  0  0
    1.3312   -1.1544    0.0000 C   0  0  0  0  0  0  0  0  0  0  0  0
    2.6578   -1.1544    0.0000 N   0  0  0  0  0  0  0  0  0  0  0  0
    3.3234   -2.3040    0.0000 C   0  0  0  0  0  0  0  0  0  0  0  0
    3.3234    0.0000    0.0000 N   0  0  0  0  0  0  0  0  0  0  0  0
    4.6546    0.0000    0.0000 O   0  0  0  0  0  0  0  0  0  0  0  0
  1  2  3  0  0  0  0
  2  3  1  0  0  0  0
  3  4  1  0  0  0  0
  3  5  1  0  0  0  0
  5  6  2  0  0  0  0
M  END
>  <ActivityOutcome_CPDBAS_Rat>
active

>  <cdk:Formula>
[]

>  <TD50_Rat_mmol>
0.00564

>  <net.bioclipse.cdk.fingerprint>
BAAAAAAAAAAAAAAAAAAAAAAgAAAEAAAAYAAAAAAAAAAAAAAAAAAAAQAAAAAAAAAAAIAAAAAAAAAAAAAAAAAAAAAAAAAAAAAAAAAAAAAAAAAAAAAAAAAABCAAAAAAAAAAAAAAAAAAAAAAAAAAIgAAAAAAAwAA

$$$$

 OpenBabel04131118512D

 12 12  0  0  0  0  0  0  0  0999 V2000
    2.0462   -2.3385    0.0000 N   0  0  0  0  0  0  0  0  0  0  0  0
    1.2648   -3.4178    0.0000 C   0  0  0  0  0  0  0  0  0  0  0  0
    0.0000   -3.0075    0.0000 C   0  0  0  0  0  0  0  0  0  0  0  0
    0.0000   -1.6752    0.0000 N   0  0  0  0  0  0  0  0  0  0  0  0
    1.2648   -1.2648    0.0000 C   0  0  0  0  0  0  0  0  0  0  0  0
    1.6752    0.0000    0.0000 C   0  0  0  0  0  0  0  0  0  0  0  0
    1.6752   -4.6826    0.0000 N   0  3  0  0  0  0  0  0  0  0  0  0
    2.9625   -5.0256    0.0000 O   0  0  0  0  0  0  0  0  0  0  0  0
    0.7364   -5.6214    0.0000 O   0  5  0  0  0  0  0  0  0  0  0  0
    3.3785   -2.3385    0.0000 C   0  0  0  0  0  0  0  0  0  0  0  0
    4.0418   -3.4909    0.0000 C   0  0  0  0  0  0  0  0  0  0  0  0
    5.3685   -3.4909    0.0000 O   0  0  0  0  0  0  0  0  0  0  0  0
  1  2  1  0  0  0  0
  1  5  1  0  0  0  0
  1 10  1  0  0  0  0
  2  3  2  0  0  0  0
  2  7  1  0  0  0  0
  3  4  1  0  0  0  0
  4  5  2  0  0  0  0
  5  6  1  0  0  0  0
  7  8  2  0  0  0  0
  7  9  1  0  0  0  0
 10 11  1  0  0  0  0
 11 12  1  0  0  0  0
M  CHG  2   7   1   9  -1
M  END
>  <ActivityOutcome_CPDBAS_Rat>
active

>  <cdk:Formula>
[]

>  <TD50_Rat_mmol>
3.17

>  <net.bioclipse.cdk.fingerprint>
AnCIIiUCAAAqABEQACAHIAAAAFAAABACQAAEAAQKAABgAAAAAIIBAACAAEEIIAAAgAIAAABAAAAAIAAAEAEAAACEAAAAAEAgAQAgIAEAYBAEABEAQGAEkAJACICEAAAEEAwCARAEACKDAAABIQAAAAAAAQAAAAAAAABCIAI=

$$$$

 OpenBabel04131118512D

 20 21  0  0  0  0  0  0  0  0999 V2000
    5.7577    0.0000    0.0000 O   0  0  0  0  0  0  0  0  0  0  0  0
    5.7577   -1.3358    0.0000 C   0  0  0  0  0  0  0  0  0  0  0  0
    6.9092   -1.9922    0.0000 C   0  0  0  0  0  0  0  0  0  0  0  0
    8.0608   -1.3358    0.0000 C   0  0  0  0  0  0  0  0  0  0  0  0
    9.2123   -1.9922    0.0000 C   0  0  0  0  0  0  0  0  0  0  0  0
    9.2123   -3.3280    0.0000 C   0  0  0  0  0  0  0  0  0  0  0  0
    8.0608   -3.9958    0.0000 C   0  0  0  0  0  0  0  0  0  0  0  0
    6.9092   -3.3280    0.0000 C   0  0  0  0  0  0  0  0  0  0  0  0
   10.3639   -3.9958    0.0000 N   0  0  0  0  0  0  0  0  0  0  0  0
   10.3639   -5.3201    0.0000 C   0  0  0  0  0  0  0  0  0  0  0  0
   11.5154   -3.3280    0.0000 C   0  0  0  0  0  0  0  0  0  0  0  0
    4.6062   -1.9922    0.0000 C   0  0  0  0  0  0  0  0  0  0  0  0
    4.6062   -3.3280    0.0000 C   0  0  0  0  0  0  0  0  0  0  0  0
    3.4546   -3.9958    0.0000 C   0  0  0  0  0  0  0  0  0  0  0  0
    2.3031   -3.3280    0.0000 C   0  0  0  0  0  0  0  0  0  0  0  0
    2.3031   -1.9922    0.0000 C   0  0  0  0  0  0  0  0  0  0  0  0
    3.4546   -1.3358    0.0000 C   0  0  0  0  0  0  0  0  0  0  0  0
    1.1515   -3.9958    0.0000 N   0  0  0  0  0  0  0  0  0  0  0  0
    1.1515   -5.3201    0.0000 C   0  0  0  0  0  0  0  0  0  0  0  0
    0.0000   -3.3280    0.0000 C   0  0  0  0  0  0  0  0  0  0  0  0
  1  2  2  0  0  0  0
  2  3  1  0  0  0  0
  2 12  1  0  0  0  0
  3  4  2  0  0  0  0
  3  8  1  0  0  0  0
  4  5  1  0  0  0  0
  5  6  2  0  0  0  0
  6  7  1  0  0  0  0
  6  9  1  0  0  0  0
  7  8  2  0  0  0  0
  9 10  1  0  0  0  0
  9 11  1  0  0  0  0
 12 13  2  0  0  0  0
 12 17  1  0  0  0  0
 13 14  1  0  0  0  0
 14 15  2  0  0  0  0
 15 16  1  0  0  0  0
 15 18  1  0  0  0  0
 16 17  2  0  0  0  0
 18 19  1  0  0  0  0
 18 20  1  0  0  0  0
M  END
>  <ActivityOutcome_CPDBAS_Rat>
active

>  <cdk:Formula>
[]

>  <TD50_Rat_mmol>
0.021

>  <net.bioclipse.cdk.fingerprint>
AQAgAIAAAIBCABABAAAAAABBAAAAAAAEQAIIAABoAAAABgAAAAACAAAAIAQEACAAAgBAAQAAwAQAAEAECAAAABAAAAAAAAAAIAAIAAAAAAAAAACAAAAAAIAAIABAAEAgAAAAAAACQAAEAAAAFACAEAhBAAAAQAACEAA=

$$$$

 OpenBabel04131118512D

 22 26  0  0  0  0  0  0  0  0999 V2000
    2.0888   -1.6738    0.0000 C   0  0  0  0  0  0  0  0  0  0  0  0
    3.6129   -3.1434    0.0000 C   0  0  0  0  0  0  0  0  0  0  0  0
    3.2727   -2.7488    0.0000 C   0  0  0  0  0  0  0  0  0  0  0  0
    4.8171   -4.2116    0.0000 C   0  0  0  0  0  0  0  0  0  0  0  0
    2.0888   -3.1434    0.0000 C   0  0  0  0  0  0  0  0  0  0  0  0
    3.2727   -4.2116    0.0000 C   0  0  0  0  0  0  0  0  0  0  0  0
    3.6129   -1.6738    0.0000 C   0  0  0  0  0  0  0  0  0  0  0  0
    4.8171   -2.7488    0.0000 C   0  0  0  0  0  0  0  0  0  0  0  0
    0.8777   -4.9668    0.0000 C   0  0  0  0  0  0  0  0  0  0  0  0
    6.0895   -0.8641    0.0000 C   0  0  0  0  0  0  0  0  0  0  0  0
    2.5855   -2.7488    0.0000 Cl  0  0  0  0  0  0  0  0  0  0  0  0
    5.5656   -4.2116    0.0000 Cl  0  0  0  0  0  0  0  0  0  0  0  0
    1.3336   -1.6738    0.0000 Cl  0  0  0  0  0  0  0  0  0  0  0  0
    4.3953   -3.1434    0.0000 Cl  0  0  0  0  0  0  0  0  0  0  0  0
    5.5928   -2.7488    0.0000 Cl  0  0  0  0  0  0  0  0  0  0  0  0
    1.3131   -3.1434    0.0000 Cl  0  0  0  0  0  0  0  0  0  0  0  0
    3.6129   -1.0070    0.0000 Cl  0  0  0  0  0  0  0  0  0  0  0  0
    3.2727   -4.8852    0.0000 Cl  0  0  0  0  0  0  0  0  0  0  0  0
    0.0000   -4.3341    0.0000 Cl  0  0  0  0  0  0  0  0  0  0  0  0
    0.6668   -5.9398    0.0000 Cl  0  0  0  0  0  0  0  0  0  0  0  0
    6.3616    0.0000    0.0000 Cl  0  0  0  0  0  0  0  0  0  0  0  0
    6.8039   -1.4764    0.0000 Cl  0  0  0  0  0  0  0  0  0  0  0  0
  1  3  1  0  0  0  0
  1  5  1  0  0  0  0
  1  7  1  0  0  0  0
  1 13  1  0  0  0  0
  2  7  1  0  0  0  0
  2  4  1  0  0  0  0
  2 14  1  0  0  0  0
  2  5  1  0  0  0  0
  3  6  1  0  0  0  0
  3  8  1  0  0  0  0
  3 11  1  0  0  0  0
  4 12  1  0  0  0  0
  4  8  1  0  0  0  0
  4  6  1  0  0  0  0
  5  9  1  0  0  0  0
  5 16  1  0  0  0  0
  6 18  1  0  0  0  0
  6  9  1  0  0  0  0
  7 10  1  0  0  0  0
  7 17  1  0  0  0  0
  8 15  1  0  0  0  0
  8 10  1  0  0  0  0
  9 19  1  0  0  0  0
  9 20  1  0  0  0  0
 10 21  1  0  0  0  0
 10 22  1  0  0  0  0
M  END
>  <ActivityOutcome_CPDBAS_Rat>
active

>  <cdk:Formula>
[]

>  <TD50_Rat_mmol>
0.00324

>  <net.bioclipse.cdk.fingerprint>
BAAAAAAAAAAAAEAAAAAAAAAAAAEAwAAAAAAAAAAAAAAAAKAAYAAOQAAAAAAAAEAAAAEAAAGEAACAAEIAAAAAAAEAAAAAAAAAAAAAAAAAAAAAAAAAAAAAAEAAAAAAAAAQAAAAAAAAAAAAAAAAAAAAAAAA

$$$$

 OpenBabel04131118512D

 21 25  0  0  0  0  0  0  0  0999 V2000
    2.0533   -1.6453    0.0000 C   0  0  0  0  0  0  0  0  0  0  0  0
    3.5515   -3.0900    0.0000 C   0  0  0  0  0  0  0  0  0  0  0  0
    3.2170   -2.7021    0.0000 C   0  0  0  0  0  0  0  0  0  0  0  0
    4.7353   -4.1400    0.0000 C   0  0  0  0  0  0  0  0  0  0  0  0
    2.0533   -3.0900    0.0000 C   0  0  0  0  0  0  0  0  0  0  0  0
    3.2170   -4.1400    0.0000 C   0  0  0  0  0  0  0  0  0  0  0  0
    3.5515   -1.6453    0.0000 C   0  0  0  0  0  0  0  0  0  0  0  0
    4.7353   -2.7021    0.0000 C   0  0  0  0  0  0  0  0  0  0  0  0
    0.8628   -4.8824    0.0000 C   0  0  0  0  0  0  0  0  0  0  0  0
    5.9860   -0.8494    0.0000 C   0  0  0  0  0  0  0  0  0  0  0  0
    2.5415   -2.7021    0.0000 Cl  0  0  0  0  0  0  0  0  0  0  0  0
    5.4710   -4.1400    0.0000 Cl  0  0  0  0  0  0  0  0  0  0  0  0
    4.3206   -3.0900    0.0000 Cl  0  0  0  0  0  0  0  0  0  0  0  0
    5.4977   -2.7021    0.0000 Cl  0  0  0  0  0  0  0  0  0  0  0  0
    1.2908   -3.0900    0.0000 Cl  0  0  0  0  0  0  0  0  0  0  0  0
    3.5515   -0.9899    0.0000 Cl  0  0  0  0  0  0  0  0  0  0  0  0
    3.2170   -4.8022    0.0000 Cl  0  0  0  0  0  0  0  0  0  0  0  0
    0.0000   -4.2604    0.0000 Cl  0  0  0  0  0  0  0  0  0  0  0  0
    0.6554   -5.8388    0.0000 Cl  0  0  0  0  0  0  0  0  0  0  0  0
    6.2535    0.0000    0.0000 Cl  0  0  0  0  0  0  0  0  0  0  0  0
    6.6882   -1.4513    0.0000 Cl  0  0  0  0  0  0  0  0  0  0  0  0
  1  3  1  0  0  0  0
  1  5  1  0  0  0  0
  1  7  1  0  0  0  0
  2  7  1  0  0  0  0
  2  4  1  0  0  0  0
  2 13  1  0  0  0  0
  2  5  1  0  0  0  0
  3  6  1  0  0  0  0
  3  8  1  0  0  0  0
  3 11  1  0  0  0  0
  4 12  1  0  0  0  0
  4  8  1  0  0  0  0
  4  6  1  0  0  0  0
  5  9  1  0  0  0  0
  5 15  1  0  0  0  0
  6 17  1  0  0  0  0
  6  9  1  0  0  0  0
  7 10  1  0  0  0  0
  7 16  1  0  0  0  0
  8 14  1  0  0  0  0
  8 10  1  0  0  0  0
  9 18  1  0  0  0  0
  9 19  1  0  0  0  0
 10 20  1  0  0  0  0
 10 21  1  0  0  0  0
M  END
>  <ActivityOutcome_CPDBAS_Rat>
active

>  <cdk:Formula>
[]

>  <TD50_Rat_mmol>
0.00286

>  <net.bioclipse.cdk.fingerprint>
BAAAAAAAAAAAAEAAAAAAAAAAAAEAwAAAAAAAAAAAAAAAAKAAYAAOQAAAAAAAAEAAAAEAAAGEAACAAEIAAAAAAAEAAAAAAAAAAAAAAAAAAAAAAAAAAAAAAEAAAAAAAAAQAAAAAAAAAAAAAAAAAAAAAAAA

$$$$

 OpenBabel04131118512D

 24 27  0  0  0  0  0  0  0  0999 V2000
    5.5521   -5.5934    0.0000 C   0  0  1  0  0  0  0  0  0  0  0  0
    6.8346   -6.0154    0.0000 C   0  0  2  0  0  0  0  0  0  0  0  0
    4.7660   -6.6857    0.0000 N   0  0  0  0  0  0  0  0  0  0  0  0
    3.4918   -4.9398    0.0000 C   0  0  0  0  0  0  0  0  0  0  0  0
    3.4918   -6.2719    0.0000 C   0  0  0  0  0  0  0  0  0  0  0  0
    4.7660   -4.5095    0.0000 C   0  0  1  0  0  0  0  0  0  0  0  0
    7.9185   -6.6691    0.0000 N   0  0  0  0  0  0  0  0  0  0  0  0
    6.8346   -7.3476    0.0000 C   0  0  2  0  0  0  0  0  0  0  0  0
    2.3416   -4.2696    0.0000 C   0  0  0  0  0  0  0  0  0  0  0  0
    2.3416   -6.9422    0.0000 C   0  0  0  0  0  0  0  0  0  0  0  0
    1.1667   -6.2719    0.0000 C   0  0  0  0  0  0  0  0  0  0  0  0
    1.1667   -4.9398    0.0000 C   0  0  0  0  0  0  0  0  0  0  0  0
    5.5604   -7.7613    0.0000 C   0  0  0  0  0  0  0  0  0  0  0  0
    5.1963   -3.2518    0.0000 C   0  0  0  0  0  0  0  0  0  0  0  0
    4.7164   -0.9929    0.0000 C   0  0  0  0  0  0  0  0  0  0  0  0
    2.3416   -8.2743    0.0000 O   0  0  0  0  0  0  0  0  0  0  0  0
    2.3416   -2.9208    0.0000 O   0  0  0  0  0  0  0  0  0  0  0  0
    4.3109   -2.2589    0.0000 O   0  0  0  0  0  0  0  0  0  0  0  0
    6.3050   -4.5095    0.0000 O   0  0  0  0  0  0  0  0  0  0  0  0
    0.0000   -4.3109    0.0000 N   0  0  0  0  0  0  0  0  0  0  0  0
    6.0320   -0.7199    0.0000 O   0  0  0  0  0  0  0  0  0  0  0  0
    3.8145    0.0000    0.0000 N   0  0  0  0  0  0  0  0  0  0  0  0
    0.0000   -6.9256    0.0000 C   0  0  0  0  0  0  0  0  0  0  0  0
    6.3050   -3.2270    0.0000 C   0  0  0  0  0  0  0  0  0  0  0  0
  1  2  1  0  0  0  0
  1  3  1  0  0  0  0
  1  6  1  0  0  0  0
  1 19  1  6  0  0  0
  2  8  1  0  0  0  0
  3  5  1  0  0  0  0
  3 13  1  0  0  0  0
  4  6  1  0  0  0  0
  4  9  1  0  0  0  0
  4  5  2  0  0  0  0
  5 10  1  0  0  0  0
  6 14  1  1  0  0  0
  7  2  1  1  0  0  0
  7  8  1  1  0  0  0
  8 13  1  0  0  0  0
  9 12  1  0  0  0  0
  9 17  2  0  0  0  0
 10 11  1  0  0  0  0
 10 16  2  0  0  0  0
 11 23  1  0  0  0  0
 11 12  2  0  0  0  0
 12 20  1  0  0  0  0
 14 18  1  0  0  0  0
 15 18  1  0  0  0  0
 15 21  2  0  0  0  0
 15 22  1  0  0  0  0
 19 24  1  0  0  0  0
M  END
>  <ActivityOutcome_CPDBAS_Rat>
active

>  <cdk:Formula>
[]

>  <TD50_Rat_mmol>
0.00000305

>  <net.bioclipse.cdk.fingerprint>
AKBEmUSG8qi1KriAG5QRMAITRRM2iARCgMAYKQLQARgkJVOI4BBEJgABjvEEiDAhWCNjMlcAMFECwARQKcVkBgBRBCx3j3wJWEi9EdFKtCPzJQLUUzZLQFFhRTFSAFACRAFIQH0OF8YIMqrraMASJIOcAlLuBfh5gAhSZEFW4g6g

$$$$

 OpenBabel04131118512D

 23 25  0  0  0  0  0  0  0  0999 V2000
    4.1190   -1.8467    0.0000 C   0  0  2  0  0  0  0  0  0  0  0  0
    2.0631   -1.8467    0.0000 C   0  0  1  0  0  0  0  0  0  0  0  0
    1.0460   -3.6357    0.0000 C   0  0  0  0  0  0  0  0  0  0  0  0
    1.0460   -2.4454    0.0000 C   0  0  2  0  0  0  0  0  0  0  0  0
    2.0631   -4.2344    0.0000 O   0  0  0  0  0  0  0  0  0  0  0  0
    5.1217   -2.4454    0.0000 C   0  0  0  0  0  0  0  0  0  0  0  0
    2.0631   -5.4102    0.0000 C   0  0  1  0  0  0  0  0  0  0  0  0
    4.1190   -5.4102    0.0000 C   0  0  0  0  0  0  0  0  0  0  0  0
    3.0946   -7.1992    0.0000 N   0  0  0  0  0  0  0  0  0  0  0  0
    3.0946   -6.0089    0.0000 C   0  0  0  0  0  0  0  0  0  0  0  0
    5.1217   -3.6357    0.0000 O   0  0  0  0  0  0  0  0  0  0  0  0
    5.1217   -6.0089    0.0000 C   0  0  0  0  0  0  0  0  0  0  0  0
    1.0460   -6.0089    0.0000 C   0  0  0  0  0  0  0  0  0  0  0  0
    4.1190   -4.2344    0.0000 C   0  0  0  0  0  0  0  0  0  0  0  0
    5.1217   -7.1992    0.0000 C   0  0  0  0  0  0  0  0  0  0  0  0
    1.0460   -7.2136    0.0000 C   0  0  0  0  0  0  0  0  0  0  0  0
    0.0000   -4.2200    0.0000 O   0  0  0  0  0  0  0  0  0  0  0  0
    6.1676   -1.8467    0.0000 O   0  0  0  0  0  0  0  0  0  0  0  0
    3.6645   -1.0027    0.0000 O   0  0  0  0  0  0  0  0  0  0  0  0
    1.5581   -0.9594    0.0000 O   0  0  0  0  0  0  0  0  0  0  0  0
    5.5833   -0.4040    0.0000 C   0  0  0  0  0  0  0  0  0  0  0  0
    2.3877    0.0000    0.0000 C   0  0  0  0  0  0  0  0  0  0  0  0
    0.0433   -1.8467    0.0000 C   0  0  0  0  0  0  0  0  0  0  0  0
  1  2  1  0  0  0  0
  1  6  1  0  0  0  0
  1 19  1  1  0  0  0
  1 21  1  6  0  0  0
  2  4  1  0  0  0  0
  2 20  1  1  0  0  0
  2 22  1  6  0  0  0
  3  4  1  0  0  0  0
  3  5  1  0  0  0  0
  3 17  2  0  0  0  0
  4 23  1  6  0  0  0
  6 11  1  0  0  0  0
  6 18  2  0  0  0  0
  7  5  1  1  0  0  0
  7 13  1  0  0  0  0
  7 10  1  0  0  0  0
  8 14  1  0  0  0  0
  8 10  1  0  0  0  0
  8 12  2  0  0  0  0
  9 10  1  0  0  0  0
  9 16  1  0  0  0  0
  9 15  1  0  0  0  0
 11 14  1  0  0  0  0
 12 15  1  0  0  0  0
 13 16  1  0  0  0  0
M  END
>  <ActivityOutcome_CPDBAS_Rat>
active

>  <cdk:Formula>
[]

>  <TD50_Rat_mmol>
0.00289

>  <net.bioclipse.cdk.fingerprint>
AtCYBQkCAgBqAQGCBEMBQRUUSgIABDEC4TAEAIMAACAXAwBgRIwAAAACAAUJAADZbAYyBgSQEBJgAEQjwWAQQAAABAQMEgHAAEQAAVagUMgBAAhTIGDEQCAhMgACAEIIgQhIRRABAACBCAggQBAgB7UACAAE0H/ACEpoQQJCACA=

$$$$

 OpenBabel04131118512D

 14 14  0  0  0  0  0  0  0  0999 V2000
    2.3457   -1.9848    0.0000 C   0  0  0  0  0  0  0  0  0  0  0  0
    1.2700   -2.7690    0.0000 N   0  0  0  0  0  0  0  0  0  0  0  0
    3.4283   -2.7690    0.0000 C   0  0  0  0  0  0  0  0  0  0  0  0
    1.6794   -4.0390    0.0000 C   0  0  0  0  0  0  0  0  0  0  0  0
    3.0119   -4.0390    0.0000 N   0  0  0  0  0  0  0  0  0  0  0  0
    2.3457   -0.6662    0.0000 C   0  0  0  0  0  0  0  0  0  0  0  0
    1.2006    0.0000    0.0000 N   0  0  0  0  0  0  0  0  0  0  0  0
    4.6774   -2.3595    0.0000 N   0  0  0  0  0  0  0  0  0  0  0  0
    4.9550   -1.0549    0.0000 C   0  0  0  0  0  0  0  0  0  0  0  0
    0.0000   -2.3595    0.0000 C   0  0  0  0  0  0  0  0  0  0  0  0
    3.4907    0.0000    0.0000 O   0  0  0  0  0  0  0  0  0  0  0  0
    5.6698   -3.2548    0.0000 N   0  0  0  0  0  0  0  0  0  0  0  0
    0.0555   -0.6662    0.0000 C   0  0  0  0  0  0  0  0  0  0  0  0
    6.9398   -2.8384    0.0000 O   0  0  0  0  0  0  0  0  0  0  0  0
  1  2  1  0  0  0  0
  1  6  1  0  0  0  0
  1  3  2  0  0  0  0
  2  4  1  0  0  0  0
  2 10  1  0  0  0  0
  3  5  1  0  0  0  0
  3  8  1  0  0  0  0
  4  5  2  0  0  0  0
  6  7  1  0  0  0  0
  6 11  2  0  0  0  0
  7 13  1  0  0  0  0
  8  9  1  0  0  0  0
  8 12  1  0  0  0  0
 12 14  2  0  0  0  0
M  END
>  <ActivityOutcome_CPDBAS_Rat>
active

>  <cdk:Formula>
[]

>  <TD50_Rat_mmol>
0.00507

>  <net.bioclipse.cdk.fingerprint>
IAgCIIKKFQIAoCAAAeUAAABggAAAAAAEACAAEEQgBFIIBOAATAQAAAAAAAAAYCFgAB2GAAIAAkgBAACAAgAQ0REAAAYAQABAQCRAAAAAkgBgEAAAQUAMIAQAQkAAiAQQAEQyBEBCFQCAAAQBIAEABAAAIgBQAEAAAAIAwQsAAg==

$$$$

 OpenBabel04131118512D

 24 27  0  0  0  0  0  0  0  0999 V2000
    3.4525    0.0000    0.0000 C   0  0  0  0  0  0  0  0  0  0  0  0
    2.3085   -0.6742    0.0000 C   0  0  0  0  0  0  0  0  0  0  0  0
    2.3085   -2.0020    0.0000 C   0  0  0  0  0  0  0  0  0  0  0  0
    3.4525   -2.6660    0.0000 C   0  0  0  0  0  0  0  0  0  0  0  0
    4.6067   -2.0020    0.0000 C   0  0  0  0  0  0  0  0  0  0  0  0
    4.6067   -0.6742    0.0000 C   0  0  0  0  0  0  0  0  0  0  0  0
    5.7609   -2.6660    0.0000 N   0  0  0  0  0  0  0  0  0  0  0  0
    5.7609   -3.9938    0.0000 C   0  0  0  0  0  0  0  0  0  0  0  0
    4.6067   -4.6578    0.0000 N   0  0  0  0  0  0  0  0  0  0  0  0
    3.4525   -3.9938    0.0000 C   0  0  0  0  0  0  0  0  0  0  0  0
    2.3085   -4.6578    0.0000 N   0  0  0  0  0  0  0  0  0  0  0  0
    2.3085   -5.9856    0.0000 C   0  0  0  0  0  0  0  0  0  0  0  0
    1.1542   -6.6496    0.0000 C   0  0  0  0  0  0  0  0  0  0  0  0
    0.0000   -5.9856    0.0000 O   0  0  0  0  0  0  0  0  0  0  0  0
    0.0000   -4.6578    0.0000 C   0  0  0  0  0  0  0  0  0  0  0  0
    1.1542   -3.9938    0.0000 C   0  0  0  0  0  0  0  0  0  0  0  0
    6.9151   -4.6578    0.0000 C   0  0  0  0  0  0  0  0  0  0  0  0
    8.1307   -4.1164    0.0000 C   0  0  0  0  0  0  0  0  0  0  0  0
    9.0193   -5.1072    0.0000 C   0  0  0  0  0  0  0  0  0  0  0  0
    8.3554   -6.2614    0.0000 C   0  0  0  0  0  0  0  0  0  0  0  0
    7.0479   -5.9856    0.0000 S   0  0  0  0  0  0  0  0  0  0  0  0
    8.8967   -7.4769    0.0000 N   0  3  0  0  0  0  0  0  0  0  0  0
   10.2144   -7.6097    0.0000 O   0  5  0  0  0  0  0  0  0  0  0  0
    8.1102   -8.5494    0.0000 O   0  0  0  0  0  0  0  0  0  0  0  0
  1  2  2  0  0  0  0
  1  6  1  0  0  0  0
  2  3  1  0  0  0  0
  3  4  2  0  0  0  0
  4  5  1  0  0  0  0
  4 10  1  0  0  0  0
  5  6  2  0  0  0  0
  5  7  1  0  0  0  0
  7  8  2  0  0  0  0
  8  9  1  0  0  0  0
  8 17  1  0  0  0  0
  9 10  2  0  0  0  0
 10 11  1  0  0  0  0
 11 12  1  0  0  0  0
 11 16  1  0  0  0  0
 12 13  1  0  0  0  0
 13 14  1  0  0  0  0
 14 15  1  0  0  0  0
 15 16  1  0  0  0  0
 17 18  2  0  0  0  0
 17 21  1  0  0  0  0
 18 19  1  0  0  0  0
 19 20  2  0  0  0  0
 20 21  1  0  0  0  0
 20 22  1  0  0  0  0
 22 23  1  0  0  0  0
 22 24  2  0  0  0  0
M  CHG  2  22   1  23  -1
M  END
>  <ActivityOutcome_CPDBAS_Rat>
active

>  <cdk:Formula>
[]

>  <TD50_Rat_mmol>
0.0147

>  <net.bioclipse.cdk.fingerprint>
IIVQQxmSKgVigFIOAACxKQEIACAAgbhBhQAAQAAUSCYQG4FiCYQAIKGMIAAAICqIIIbUAAogCoLDAYAMgI0JAGHIwEAEETwMgFkAJICAoNEAAEDAgAFAHCSCMLRIUICMoEAUosQgCRDABCAiQIChQAAEEFKgASEiBIASlAaKmEI=

$$$$

 OpenBabel04131118512D

 23 25  0  0  0  0  0  0  0  0999 V2000
    1.6416   -5.7565    0.0000 C   0  0  0  0  0  0  0  0  0  0  0  0
    2.2982   -4.6074    0.0000 C   0  0  0  0  0  0  0  0  0  0  0  0
    1.1491   -3.9398    0.0000 C   0  0  0  0  0  0  0  0  0  0  0  0
    0.0000   -4.6074    0.0000 O   0  0  0  0  0  0  0  0  0  0  0  0
    1.1491   -2.6156    0.0000 O   0  0  0  0  0  0  0  0  0  0  0  0
    2.9658   -3.4583    0.0000 O   0  0  0  0  0  0  0  0  0  0  0  0
    4.3010   -3.4583    0.0000 C   0  0  0  0  0  0  0  0  0  0  0  0
    4.9576   -2.2982    0.0000 C   0  0  0  0  0  0  0  0  0  0  0  0
    6.2928   -2.2982    0.0000 C   0  0  0  0  0  0  0  0  0  0  0  0
    6.9604   -3.4583    0.0000 C   0  0  0  0  0  0  0  0  0  0  0  0
    6.2928   -4.6074    0.0000 C   0  0  0  0  0  0  0  0  0  0  0  0
    4.9576   -4.6074    0.0000 C   0  0  0  0  0  0  0  0  0  0  0  0
    8.2846   -3.4583    0.0000 C   0  0  0  0  0  0  0  0  0  0  0  0
    8.9522   -4.6074    0.0000 C   0  0  0  0  0  0  0  0  0  0  0  0
   10.2764   -4.6074    0.0000 C   0  0  0  0  0  0  0  0  0  0  0  0
   10.9440   -3.4583    0.0000 C   0  0  0  0  0  0  0  0  0  0  0  0
   10.2764   -2.2982    0.0000 C   0  0  0  0  0  0  0  0  0  0  0  0
    8.9522   -2.2982    0.0000 C   0  0  0  0  0  0  0  0  0  0  0  0
    8.2846   -1.1491    0.0000 C   0  0  0  0  0  0  0  0  0  0  0  0
    8.9522    0.0000    0.0000 C   0  0  0  0  0  0  0  0  0  0  0  0
   10.2764    0.0000    0.0000 C   0  0  0  0  0  0  0  0  0  0  0  0
   10.9440   -1.1491    0.0000 C   0  0  0  0  0  0  0  0  0  0  0  0
    3.4583   -5.2750    0.0000 C   0  0  0  0  0  0  0  0  0  0  0  0
  1  2  1  0  0  0  0
  2  3  1  0  0  0  0
  2  6  1  0  0  0  0
  2 23  1  0  0  0  0
  3  4  1  0  0  0  0
  3  5  2  0  0  0  0
  6  7  1  0  0  0  0
  7  8  2  0  0  0  0
  7 12  1  0  0  0  0
  8  9  1  0  0  0  0
  9 10  2  0  0  0  0
 10 11  1  0  0  0  0
 10 13  1  0  0  0  0
 11 12  2  0  0  0  0
 13 14  1  0  0  0  0
 13 18  1  0  0  0  0
 14 15  1  0  0  0  0
 15 16  1  0  0  0  0
 16 17  1  0  0  0  0
 17 18  2  0  0  0  0
 17 22  1  0  0  0  0
 18 19  1  0  0  0  0
 19 20  2  0  0  0  0
 20 21  1  0  0  0  0
 21 22  2  0  0  0  0
M  END
>  <ActivityOutcome_CPDBAS_Rat>
active

>  <cdk:Formula>
[]

>  <TD50_Rat_mmol>
0.0354

>  <net.bioclipse.cdk.fingerprint>
BAAAIAACAAAAQQDSAJAABBAJAgAAAAAAwAACAAAAAIAIAQJhAEAAAAMAAAwCIAAYIAIkKACAAABAAQAIQAAAAgAGGAAAABBABAAABEIAYIAIEAgAwACEAIiAEAQICsAAIABKAEAgMCEAAAAGQDAEAaAAHACAWCBFAAAAAAAgAAA=

$$$$

 OpenBabel04131118512D

 17 18  0  0  0  0  0  0  0  0999 V2000
    1.1543   -3.9880    0.0000 O   0  0  0  0  0  0  0  0  0  0  0  0
    2.3016   -3.3245    0.0000 C   0  0  0  0  0  0  0  0  0  0  0  0
    3.4558   -3.9880    0.0000 C   0  0  0  0  0  0  0  0  0  0  0  0
    4.6101   -3.3245    0.0000 C   0  0  0  0  0  0  0  0  0  0  0  0
    5.7574   -3.9880    0.0000 N   0  0  0  0  0  0  0  0  0  0  0  0
    5.7574   -5.3220    0.0000 C   0  0  0  0  0  0  0  0  0  0  0  0
    4.6101   -5.9855    0.0000 C   0  0  0  0  0  0  0  0  0  0  0  0
    3.4558   -5.3220    0.0000 C   0  0  0  0  0  0  0  0  0  0  0  0
    6.9117   -5.9855    0.0000 C   0  0  0  0  0  0  0  0  0  0  0  0
    4.6101   -1.9975    0.0000 N   0  0  0  0  0  0  0  0  0  0  0  0
    3.4558   -1.3270    0.0000 C   0  0  0  0  0  0  0  0  0  0  0  0
    2.3016   -1.9975    0.0000 C   0  0  0  0  0  0  0  0  0  0  0  0
    1.1543   -1.3270    0.0000 C   0  0  0  0  0  0  0  0  0  0  0  0
    1.1543    0.0000    0.0000 O   0  0  0  0  0  0  0  0  0  0  0  0
    0.0000   -1.9975    0.0000 O   0  0  0  0  0  0  0  0  0  0  0  0
    5.7574   -1.3270    0.0000 C   0  0  0  0  0  0  0  0  0  0  0  0
    5.7574    0.0000    0.0000 C   0  0  0  0  0  0  0  0  0  0  0  0
  1  2  2  0  0  0  0
  2  3  1  0  0  0  0
  2 12  1  0  0  0  0
  3  4  2  0  0  0  0
  3  8  1  0  0  0  0
  4  5  1  0  0  0  0
  4 10  1  0  0  0  0
  5  6  2  0  0  0  0
  6  7  1  0  0  0  0
  6  9  1  0  0  0  0
  7  8  2  0  0  0  0
 10 11  1  0  0  0  0
 10 16  1  0  0  0  0
 11 12  2  0  0  0  0
 12 13  1  0  0  0  0
 13 14  2  0  0  0  0
 13 15  1  0  0  0  0
 16 17  1  0  0  0  0
M  END
>  <ActivityOutcome_CPDBAS_Rat>
active

>  <cdk:Formula>
[]

>  <TD50_Rat_mmol>
0.866

>  <net.bioclipse.cdk.fingerprint>
SIq6GJCKB2Ijw16gAGCAAYAIAgAEQMAhCABiBIQI5sAICHggYRxUiIABkCQCBJhoSDwAGBIaAEAQACLUDAAAwVGABAUAhAAGEzCJgIAAlUSAAAIQIRAAQIA4EQAUgQDgAMIQSTCmAACCoQpQEISDCBBdYIR7FkQAgEEgIMLoAQ==

$$$$

 OpenBabel04131118512D

 10 11  0  0  0  0  0  0  0  0999 V2000
    3.4558    0.0000    0.0000 C   0  0  0  0  0  0  0  0  0  0  0  0
    2.3039   -0.6635    0.0000 C   0  0  0  0  0  0  0  0  0  0  0  0
    2.3039   -1.9952    0.0000 C   0  0  0  0  0  0  0  0  0  0  0  0
    3.4558   -2.6587    0.0000 C   0  0  0  0  0  0  0  0  0  0  0  0
    4.6078   -1.9952    0.0000 C   0  0  0  0  0  0  0  0  0  0  0  0
    4.6078   -0.6635    0.0000 C   0  0  0  0  0  0  0  0  0  0  0  0
    1.1519   -2.6587    0.0000 C   0  0  0  0  0  0  0  0  0  0  0  0
    0.0000   -1.9952    0.0000 C   0  0  0  0  0  0  0  0  0  0  0  0
    0.0000   -0.6635    0.0000 C   0  0  0  0  0  0  0  0  0  0  0  0
    1.1519    0.0000    0.0000 C   0  0  0  0  0  0  0  0  0  0  0  0
  1  2  2  0  0  0  0
  1  6  1  0  0  0  0
  2  3  1  0  0  0  0
  2 10  1  0  0  0  0
  3  4  2  0  0  0  0
  3  7  1  0  0  0  0
  4  5  1  0  0  0  0
  5  6  2  0  0  0  0
  7  8  2  0  0  0  0
  8  9  1  0  0  0  0
  9 10  2  0  0  0  0
M  END
>  <ActivityOutcome_CPDBAS_Rat>
active

>  <cdk:Formula>
[]

>  <TD50_Rat_mmol>
0.172

>  <net.bioclipse.cdk.fingerprint>
QAAAAAAAAAAAAAAAAAAAAAAAAAAAQAAAAACAAAAAAAAAAACAAAAAAAAAAAAAAAAAAAAAAAAAAAAAAAAAACAAAAAAIAAAAAAAAgAAAAAAAAAAgAAAAEAAAAAAAAAA

$$$$

 OpenBabel04131118512D

 12 13  0  0  0  0  0  0  0  0999 V2000
    5.7579   -1.9922    0.0000 N   0  0  0  0  0  0  0  0  0  0  0  0
    4.6063   -2.6601    0.0000 C   0  0  0  0  0  0  0  0  0  0  0  0
    3.4547   -1.9922    0.0000 C   0  0  0  0  0  0  0  0  0  0  0  0
    2.3031   -2.6601    0.0000 C   0  0  0  0  0  0  0  0  0  0  0  0
    2.3031   -3.9902    0.0000 C   0  0  0  0  0  0  0  0  0  0  0  0
    3.4547   -4.6524    0.0000 C   0  0  0  0  0  0  0  0  0  0  0  0
    4.6063   -3.9902    0.0000 C   0  0  0  0  0  0  0  0  0  0  0  0
    1.1516   -1.9922    0.0000 C   0  0  0  0  0  0  0  0  0  0  0  0
    1.1516   -0.6622    0.0000 C   0  0  0  0  0  0  0  0  0  0  0  0
    2.3031    0.0000    0.0000 C   0  0  0  0  0  0  0  0  0  0  0  0
    3.4547   -0.6622    0.0000 C   0  0  0  0  0  0  0  0  0  0  0  0
    0.0000   -2.6601    0.0000 N   0  0  0  0  0  0  0  0  0  0  0  0
  1  2  1  0  0  0  0
  2  3  2  0  0  0  0
  2  7  1  0  0  0  0
  3  4  1  0  0  0  0
  3 11  1  0  0  0  0
  4  5  2  0  0  0  0
  4  8  1  0  0  0  0
  5  6  1  0  0  0  0
  6  7  2  0  0  0  0
  8  9  2  0  0  0  0
  8 12  1  0  0  0  0
  9 10  1  0  0  0  0
 10 11  2  0  0  0  0
M  END
>  <ActivityOutcome_CPDBAS_Rat>
active

>  <cdk:Formula>
[]

>  <TD50_Rat_mmol>
0.44

>  <net.bioclipse.cdk.fingerprint>
KAAAAAAAAAEAAAAAAAAAQBAAAAAABAACAAAAYAAAAAAAAAAAAAAAAAAAAAAAAAAAQAAAAACAAAAAAAAAAACAAAAAAAAAAAAAAAAAAAAAAAAAQAAAAAAAACAAAAAAIAAAAAAAAgAAAAAAAAAAgAAAAEAAAAAAAhAA

$$$$

 OpenBabel04131118512D

 11 12  0  0  0  0  0  0  0  0999 V2000
    3.4554   -1.9983    0.0000 C   0  0  0  0  0  0  0  0  0  0  0  0
    3.4554   -0.6680    0.0000 C   0  0  0  0  0  0  0  0  0  0  0  0
    2.3036    0.0000    0.0000 C   0  0  0  0  0  0  0  0  0  0  0  0
    1.1518   -0.6680    0.0000 C   0  0  0  0  0  0  0  0  0  0  0  0
    1.1518   -1.9983    0.0000 C   0  0  0  0  0  0  0  0  0  0  0  0
    2.3036   -2.6606    0.0000 C   0  0  0  0  0  0  0  0  0  0  0  0
    0.0000   -2.6606    0.0000 N   0  0  0  0  0  0  0  0  0  0  0  0
    4.6071    0.0000    0.0000 C   0  0  0  0  0  0  0  0  0  0  0  0
    5.7589   -0.6680    0.0000 C   0  0  0  0  0  0  0  0  0  0  0  0
    5.7589   -1.9983    0.0000 C   0  0  0  0  0  0  0  0  0  0  0  0
    4.6071   -2.6606    0.0000 C   0  0  0  0  0  0  0  0  0  0  0  0
  1  2  2  0  0  0  0
  1  6  1  0  0  0  0
  1 11  1  0  0  0  0
  2  3  1  0  0  0  0
  2  8  1  0  0  0  0
  3  4  2  0  0  0  0
  4  5  1  0  0  0  0
  5  6  2  0  0  0  0
  5  7  1  0  0  0  0
  8  9  2  0  0  0  0
  9 10  1  0  0  0  0
 10 11  2  0  0  0  0
M  END
>  <ActivityOutcome_CPDBAS_Rat>
active

>  <cdk:Formula>
[]

>  <TD50_Rat_mmol>
0.43

>  <net.bioclipse.cdk.fingerprint>
IAAAAAAAAAEAAAAAAAAAQAAAAAAABAACAAAAYAAAAAAAAAAAAAAAAAAAAAAAAAAAQAAAAACAAAAAAAAAAACAAAAAAAAAAAAAAAAAAAAAAAAAQAAAAAAAACAAAAAAIAAAAAAAAgAAAAAAAAAAgAAAAEAAAAAAAhAA

$$$$

 OpenBabel04131118512D

 14 14  0  0  0  0  0  0  0  0999 V2000
    2.7683   -1.7254    0.0000 C   0  0  0  0  0  0  0  0  0  0  0  0
    4.0719   -2.0014    0.0000 N   0  0  0  0  0  0  0  0  0  0  0  0
    4.2099   -3.3280    0.0000 C   0  0  0  0  0  0  0  0  0  0  0  0
    2.9983   -3.8648    0.0000 S   0  0  0  0  0  0  0  0  0  0  0  0
    2.1088   -2.8756    0.0000 C   0  0  0  0  0  0  0  0  0  0  0  0
    0.7822   -3.0136    0.0000 N   0  3  0  0  0  0  0  0  0  0  0  0
    0.0000   -1.9401    0.0000 O   0  5  0  0  0  0  0  0  0  0  0  0
    0.2377   -4.2329    0.0000 O   0  0  0  0  0  0  0  0  0  0  0  0
    5.3602   -3.9875    0.0000 N   0  0  0  0  0  0  0  0  0  0  0  0
    6.5181   -3.3280    0.0000 C   0  0  0  0  0  0  0  0  0  0  0  0
    6.5181   -1.9938    0.0000 N   0  0  0  0  0  0  0  0  0  0  0  0
    7.6683   -1.3266    0.0000 C   0  0  0  0  0  0  0  0  0  0  0  0
    7.6683    0.0000    0.0000 C   0  0  0  0  0  0  0  0  0  0  0  0
    7.6683   -3.9875    0.0000 O   0  0  0  0  0  0  0  0  0  0  0  0
  1  2  1  0  0  0  0
  1  5  2  0  0  0  0
  2  3  2  0  0  0  0
  3  4  1  0  0  0  0
  3  9  1  0  0  0  0
  4  5  1  0  0  0  0
  5  6  1  0  0  0  0
  6  7  1  0  0  0  0
  6  8  2  0  0  0  0
  9 10  1  0  0  0  0
 10 11  1  0  0  0  0
 10 14  2  0  0  0  0
 11 12  1  0  0  0  0
 12 13  1  0  0  0  0
M  CHG  2   6   1   7  -1
M  END
>  <ActivityOutcome_CPDBAS_Rat>
active

>  <cdk:Formula>
[]

>  <TD50_Rat_mmol>
0.606

>  <net.bioclipse.cdk.fingerprint>
AiIQqAoGQhACTIAAIABBAQAgACFQCAAgAQgEBEIEACABYAQgAIQBCAAAGgABACAARIACAAIgwIKAAIgBCBCBGAIAAgCgBQAAAARAAASAAAAAEAJhAAAwAQCiAAAAAAIARCAEAANEgQAwApAAoCICAEBAQEgAgAgAAABUBlAA

$$$$

 OpenBabel04131118512D

 13 12  0  0  0  0  0  0  0  0999 V2000
    0.0000   -5.7554    0.0000 O   0  0  0  0  0  0  0  0  0  0  0  0
    0.6641   -4.6067    0.0000 C   0  0  0  0  0  0  0  0  0  0  0  0
    0.0000   -3.4520    0.0000 O   0  0  0  0  0  0  0  0  0  0  0  0
    1.9922   -4.6067    0.0000 C   0  0  0  0  0  0  0  0  0  0  0  0
    2.6563   -3.4520    0.0000 N   0  0  0  0  0  0  0  0  0  0  0  0
    1.9922   -2.3033    0.0000 C   0  0  0  0  0  0  0  0  0  0  0  0
    2.6563   -1.1487    0.0000 C   0  0  0  0  0  0  0  0  0  0  0  0
    3.9905   -1.1487    0.0000 O   0  0  0  0  0  0  0  0  0  0  0  0
    1.9922    0.0000    0.0000 O   0  0  0  0  0  0  0  0  0  0  0  0
    3.9905   -3.4520    0.0000 C   0  0  0  0  0  0  0  0  0  0  0  0
    4.6546   -4.6067    0.0000 C   0  0  0  0  0  0  0  0  0  0  0  0
    5.9827   -4.6067    0.0000 O   0  0  0  0  0  0  0  0  0  0  0  0
    3.9905   -5.7554    0.0000 O   0  0  0  0  0  0  0  0  0  0  0  0
  1  2  1  0  0  0  0
  2  3  2  0  0  0  0
  2  4  1  0  0  0  0
  4  5  1  0  0  0  0
  5  6  1  0  0  0  0
  5 10  1  0  0  0  0
  6  7  1  0  0  0  0
  7  8  2  0  0  0  0
  7  9  1  0  0  0  0
 10 11  1  0  0  0  0
 11 12  2  0  0  0  0
 11 13  1  0  0  0  0
M  END
>  <ActivityOutcome_CPDBAS_Rat>
active

>  <cdk:Formula>
[]

>  <TD50_Rat_mmol>
9.26

>  <net.bioclipse.cdk.fingerprint>
EAAAAAAAAgAAAgAAAAAAAQAAAAAAAAAAAAAAAAAAAAAAYAAAAAAAAEAAAAAACGAAAAAAAAAAAAAAAIAAAAAAAAAAAAAAAAAAAAAAAACAAAAAQAAAAAAAABAAAAAAAAAAQAAAAAAAAABAAAAAAACAAAAAAFABAAAAAAAAAgAA

$$$$

 OpenBabel04131118512D

 12 12  0  0  0  0  0  0  0  0999 V2000
    0.0000   -3.4588    0.0000 O   0  0  0  0  0  0  0  0  0  0  0  0
    0.6652   -2.3081    0.0000 N   0  3  0  0  0  0  0  0  0  0  0  0
    1.9955   -2.3081    0.0000 C   0  0  0  0  0  0  0  0  0  0  0  0
    2.6606   -1.1574    0.0000 C   0  0  0  0  0  0  0  0  0  0  0  0
    3.9909   -1.1574    0.0000 C   0  0  0  0  0  0  0  0  0  0  0  0
    4.6561   -2.3081    0.0000 C   0  0  0  0  0  0  0  0  0  0  0  0
    3.9909   -3.4588    0.0000 C   0  0  0  0  0  0  0  0  0  0  0  0
    2.6606   -3.4588    0.0000 C   0  0  0  0  0  0  0  0  0  0  0  0
    5.9864   -2.3081    0.0000 O   0  0  0  0  0  0  0  0  0  0  0  0
    6.6515   -3.4588    0.0000 C   0  0  0  0  0  0  0  0  0  0  0  0
    4.6561    0.0000    0.0000 N   0  0  0  0  0  0  0  0  0  0  0  0
    0.0000   -1.1574    0.0000 O   0  5  0  0  0  0  0  0  0  0  0  0
  1  2  2  0  0  0  0
  2  3  1  0  0  0  0
  2 12  1  0  0  0  0
  3  4  2  0  0  0  0
  3  8  1  0  0  0  0
  4  5  1  0  0  0  0
  5  6  2  0  0  0  0
  5 11  1  0  0  0  0
  6  7  1  0  0  0  0
  6  9  1  0  0  0  0
  7  8  2  0  0  0  0
  9 10  1  0  0  0  0
M  CHG  2   2   1  12  -1
M  END
>  <ActivityOutcome_CPDBAS_Rat>
active

>  <cdk:Formula>
[]

>  <TD50_Rat_mmol>
0.321

>  <net.bioclipse.cdk.fingerprint>
EAIAACAAgAoAMAAEAAgAAAAAGECIAAEAAAQABgAAAmEBBAAAAAAAAAAAAAAAAAAgAgAAAEAEAIAAAAAAAAoQAAAAQACAAAAEAAiAgAABAAAAACAAAAAAAAAQAAAgAAQAACAgIABAIAIACAAAAAAAAIAAABAAAAAAACIQAA==

$$$$

 OpenBabel04131118512D

 14 14  0  0  0  0  0  0  0  0999 V2000
    0.2393   -2.5025    0.0000 O   0  0  0  0  0  0  0  0  0  0  0  0
    0.7777   -1.2861    0.0000 N   0  3  0  0  0  0  0  0  0  0  0  0
    2.1037   -1.1466    0.0000 C   0  0  0  0  0  0  0  0  0  0  0  0
    2.7717    0.0000    0.0000 C   0  0  0  0  0  0  0  0  0  0  0  0
    4.0678   -0.2692    0.0000 C   0  0  0  0  0  0  0  0  0  0  0  0
    4.2074   -1.5952    0.0000 C   0  0  0  0  0  0  0  0  0  0  0  0
    2.9910   -2.1336    0.0000 O   0  0  0  0  0  0  0  0  0  0  0  0
    5.3639   -2.2632    0.0000 C   0  0  0  0  0  0  0  0  0  0  0  0
    6.5105   -1.5952    0.0000 N   0  0  0  0  0  0  0  0  0  0  0  0
    7.6670   -2.2632    0.0000 N   0  0  0  0  0  0  0  0  0  0  0  0
    8.8136   -1.5952    0.0000 C   0  0  0  0  0  0  0  0  0  0  0  0
    8.8136   -0.2692    0.0000 O   0  0  0  0  0  0  0  0  0  0  0  0
    9.9701   -2.2632    0.0000 N   0  0  0  0  0  0  0  0  0  0  0  0
    0.0000   -0.2094    0.0000 O   0  5  0  0  0  0  0  0  0  0  0  0
  1  2  2  0  0  0  0
  2  3  1  0  0  0  0
  2 14  1  0  0  0  0
  3  4  2  0  0  0  0
  3  7  1  0  0  0  0
  4  5  1  0  0  0  0
  5  6  2  0  0  0  0
  6  7  1  0  0  0  0
  6  8  1  0  0  0  0
  8  9  2  0  0  0  0
  9 10  1  0  0  0  0
 10 11  1  0  0  0  0
 11 12  2  0  0  0  0
 11 13  1  0  0  0  0
M  CHG  2   2   1  14  -1
M  END
>  <ActivityOutcome_CPDBAS_Rat>
active

>  <cdk:Formula>
[]

>  <TD50_Rat_mmol>
0.0352

>  <net.bioclipse.cdk.fingerprint>
DBAAMAJBICMQEAoAAMAgAEooIAAAEMFQBABQAAQgBEBAIGAABAACABAAAAAAIAAggAAAAgAAQEsAAgAABIASAAAQAABAAAAAAgAAUAyAAAAAA0AQCgQAQIAAACAAgQUgAEQgFCQEAQIAMghAkDIAAACIoALQAEgAAAACAAMgIA==

$$$$

 OpenBabel04131118512D

 17 19  0  0  0  0  0  0  0  0999 V2000
    5.9812   -0.9869    0.0000 C   0  0  0  0  0  0  0  0  0  0  0  0
    6.3932   -2.2569    0.0000 N   0  0  0  0  0  0  0  0  0  0  0  0
    7.6889   -2.5315    0.0000 C   0  0  0  0  0  0  0  0  0  0  0  0
    8.5814   -1.5447    0.0000 C   0  0  0  0  0  0  0  0  0  0  0  0
    8.1695   -0.2746    0.0000 C   0  0  0  0  0  0  0  0  0  0  0  0
    6.8737    0.0000    0.0000 C   0  0  0  0  0  0  0  0  0  0  0  0
    7.8348   -3.8531    0.0000 N   0  0  0  0  0  0  0  0  0  0  0  0
    6.6163   -4.3937    0.0000 C   0  0  0  0  0  0  0  0  0  0  0  0
    5.7238   -3.4068    0.0000 C   0  0  0  0  0  0  0  0  0  0  0  0
    4.4023   -3.5441    0.0000 C   0  0  0  0  0  0  0  0  0  0  0  0
    3.7415   -4.6940    0.0000 C   0  0  0  0  0  0  0  0  0  0  0  0
    2.4371   -4.4194    0.0000 C   0  0  0  0  0  0  0  0  0  0  0  0
    2.2998   -3.0979    0.0000 C   0  0  0  0  0  0  0  0  0  0  0  0
    3.5184   -2.5573    0.0000 O   0  0  0  0  0  0  0  0  0  0  0  0
    1.1499   -2.4285    0.0000 N   0  3  0  0  0  0  0  0  0  0  0  0
    0.0000   -3.0979    0.0000 O   0  5  0  0  0  0  0  0  0  0  0  0
    1.1499   -1.0984    0.0000 O   0  0  0  0  0  0  0  0  0  0  0  0
  1  2  1  0  0  0  0
  1  6  2  0  0  0  0
  2  3  1  0  0  0  0
  2  9  1  0  0  0  0
  3  4  1  0  0  0  0
  3  7  2  0  0  0  0
  4  5  2  0  0  0  0
  5  6  1  0  0  0  0
  7  8  1  0  0  0  0
  8  9  2  0  0  0  0
  9 10  1  0  0  0  0
 10 11  2  0  0  0  0
 10 14  1  0  0  0  0
 11 12  1  0  0  0  0
 12 13  2  0  0  0  0
 13 14  1  0  0  0  0
 13 15  1  0  0  0  0
 15 16  1  0  0  0  0
 15 17  2  0  0  0  0
M  CHG  2  15   1  16  -1
M  END
>  <ActivityOutcome_CPDBAS_Rat>
active

>  <cdk:Formula>
[]

>  <TD50_Rat_mmol>
0.0593

>  <net.bioclipse.cdk.fingerprint>
JAACeZJ7oSAIly4GltAICkpgICGQmMEQAYhBAAQIBgAAgGIABSKhgJiABABgQgghCAgBCsAABkACAAgABIBQAZAAABQApGAAGUEAyAyABhCAAiGYDCQQ5KAkQGQCgAxgQfQRVCCFBPgAYgBAkIsBSCaUM6KISBAUCAgICwoEYg==

$$$$

 OpenBabel04131118512D

 14 15  0  0  0  0  0  0  0  0999 V2000
    4.5865   -2.4461    0.0000 C   0  0  0  0  0  0  0  0  0  0  0  0
    3.2555   -2.3022    0.0000 C   0  0  0  0  0  0  0  0  0  0  0  0
    2.3652   -3.2915    0.0000 O   0  0  0  0  0  0  0  0  0  0  0  0
    1.1511   -2.7519    0.0000 C   0  0  0  0  0  0  0  0  0  0  0  0
    1.2950   -1.4299    0.0000 N   0  0  0  0  0  0  0  0  0  0  0  0
    2.5900   -1.1511    0.0000 N   0  0  0  0  0  0  0  0  0  0  0  0
    0.0000   -3.4174    0.0000 O   0  0  0  0  0  0  0  0  0  0  0  0
    5.4768   -1.4569    0.0000 O   0  0  0  0  0  0  0  0  0  0  0  0
    6.6908   -1.9965    0.0000 C   0  0  0  0  0  0  0  0  0  0  0  0
    7.8419   -1.3310    0.0000 N   0  3  0  0  0  0  0  0  0  0  0  0
    7.8419    0.0000    0.0000 O   0  0  0  0  0  0  0  0  0  0  0  0
    8.9931   -1.9965    0.0000 O   0  5  0  0  0  0  0  0  0  0  0  0
    6.5469   -3.3184    0.0000 C   0  0  0  0  0  0  0  0  0  0  0  0
    5.2430   -3.5972    0.0000 C   0  0  0  0  0  0  0  0  0  0  0  0
  1  2  1  0  0  0  0
  1  8  1  0  0  0  0
  1 14  2  0  0  0  0
  2  3  1  0  0  0  0
  2  6  2  0  0  0  0
  3  4  1  0  0  0  0
  4  5  2  0  0  0  0
  4  7  1  0  0  0  0
  5  6  1  0  0  0  0
  8  9  1  0  0  0  0
  9 10  1  0  0  0  0
  9 13  2  0  0  0  0
 10 11  2  0  0  0  0
 10 12  1  0  0  0  0
 13 14  1  0  0  0  0
M  CHG  2  10   1  12  -1
M  END
>  <ActivityOutcome_CPDBAS_Rat>
active

>  <cdk:Formula>
[]

>  <TD50_Rat_mmol>
0.0437

>  <net.bioclipse.cdk.fingerprint>
FAGAOI4BIWsIkAoAAMAgB0ogAKAAkMEQAOFBAAwQBAABgOQiZAAAMBiAAABgAAAkIAToaoABAkgASACABIAAYGAAACYAYWJCEAAAQJyAEFgAEgIQAEQAxIAKkCiAgAQgQHwAFCIEgIgMYgBAkIKAgICBAALAAEBAQEAACAYYIA==

$$$$

 OpenBabel04131118512D

 18 19  0  0  0  0  0  0  0  0999 V2000
    0.0000   -3.5790    0.0000 O   0  0  0  0  0  0  0  0  0  0  0  0
    0.9374   -2.6416    0.0000 C   0  0  0  0  0  0  0  0  0  0  0  0
    0.5965   -1.3513    0.0000 C   0  0  0  0  0  0  0  0  0  0  0  0
    2.2399   -2.9094    0.0000 N   0  0  0  0  0  0  0  0  0  0  0  0
    3.1286   -1.9234    0.0000 C   0  0  0  0  0  0  0  0  0  0  0  0
    4.4311   -2.2034    0.0000 C   0  0  0  0  0  0  0  0  0  0  0  0
    5.4172   -1.3147    0.0000 N   0  0  0  0  0  0  0  0  0  0  0  0
    6.5737   -1.9721    0.0000 C   0  0  0  0  0  0  0  0  0  0  0  0
    6.2937   -3.2747    0.0000 N   0  0  0  0  0  0  0  0  0  0  0  0
    4.9789   -3.4207    0.0000 O   0  0  0  0  0  0  0  0  0  0  0  0
    7.7910   -1.4365    0.0000 C   0  0  0  0  0  0  0  0  0  0  0  0
    8.0710   -0.1339    0.0000 C   0  0  0  0  0  0  0  0  0  0  0  0
    9.3857    0.0000    0.0000 C   0  0  0  0  0  0  0  0  0  0  0  0
    9.9335   -1.2173    0.0000 C   0  0  0  0  0  0  0  0  0  0  0  0
    8.9475   -2.1060    0.0000 O   0  0  0  0  0  0  0  0  0  0  0  0
   11.2361   -1.4852    0.0000 N   0  3  0  0  0  0  0  0  0  0  0  0
   12.1734   -0.5478    0.0000 O   0  5  0  0  0  0  0  0  0  0  0  0
   11.5769   -2.7755    0.0000 O   0  0  0  0  0  0  0  0  0  0  0  0
  1  2  2  0  0  0  0
  2  3  1  0  0  0  0
  2  4  1  0  0  0  0
  4  5  1  0  0  0  0
  5  6  1  0  0  0  0
  6  7  2  0  0  0  0
  6 10  1  0  0  0  0
  7  8  1  0  0  0  0
  8  9  2  0  0  0  0
  8 11  1  0  0  0  0
  9 10  1  0  0  0  0
 11 12  2  0  0  0  0
 11 15  1  0  0  0  0
 12 13  1  0  0  0  0
 13 14  2  0  0  0  0
 14 15  1  0  0  0  0
 14 16  1  0  0  0  0
 16 17  1  0  0  0  0
 16 18  2  0  0  0  0
M  CHG  2  16   1  17  -1
M  END
>  <ActivityOutcome_CPDBAS_Rat>
active

>  <cdk:Formula>
[]

>  <TD50_Rat_mmol>
0.236

>  <net.bioclipse.cdk.fingerprint>
URI8hoMlIlQUSASY0AAASiChAIAYwTAhgGEAhDCGAQCQcEIEAEAoGcwCICkjACCAIAaiAgASWqAAAJAEgQDQgAAAVgBQQhkYLEBAboKEkAAiRNQGRkv0gRBMIACFBiAA9CCcJE0GqCSiAESQioAIDqAAAtAAACCAMEACAgAD

$$$$

 OpenBabel04131118512D

 17 18  0  0  0  0  0  0  0  0999 V2000
   11.1214   -2.0686    0.0000 C   0  0  0  0  0  0  0  0  0  0  0  0
    9.9647   -2.7359    0.0000 C   0  0  0  0  0  0  0  0  0  0  0  0
    9.9647   -4.0704    0.0000 O   0  0  0  0  0  0  0  0  0  0  0  0
    8.8192   -2.0686    0.0000 N   0  0  0  0  0  0  0  0  0  0  0  0
    7.6626   -2.7359    0.0000 C   0  0  0  0  0  0  0  0  0  0  0  0
    7.5292   -4.0593    0.0000 N   0  0  0  0  0  0  0  0  0  0  0  0
    6.2280   -4.3373    0.0000 N   0  0  0  0  0  0  0  0  0  0  0  0
    5.5607   -3.1807    0.0000 C   0  0  0  0  0  0  0  0  0  0  0  0
    6.4504   -2.2020    0.0000 S   0  0  0  0  0  0  0  0  0  0  0  0
    4.2372   -3.0473    0.0000 C   0  0  0  0  0  0  0  0  0  0  0  0
    3.3475   -4.0371    0.0000 C   0  0  0  0  0  0  0  0  0  0  0  0
    2.1353   -3.4921    0.0000 C   0  0  0  0  0  0  0  0  0  0  0  0
    2.2688   -2.1687    0.0000 C   0  0  0  0  0  0  0  0  0  0  0  0
    3.5700   -1.8906    0.0000 O   0  0  0  0  0  0  0  0  0  0  0  0
    1.2901   -1.2790    0.0000 N   0  3  0  0  0  0  0  0  0  0  0  0
    0.0000   -1.6237    0.0000 O   0  5  0  0  0  0  0  0  0  0  0  0
    1.6237    0.0000    0.0000 O   0  0  0  0  0  0  0  0  0  0  0  0
  1  2  1  0  0  0  0
  2  3  2  0  0  0  0
  2  4  1  0  0  0  0
  4  5  1  0  0  0  0
  5  6  2  0  0  0  0
  5  9  1  0  0  0  0
  6  7  1  0  0  0  0
  7  8  2  0  0  0  0
  8  9  1  0  0  0  0
  8 10  1  0  0  0  0
 10 11  2  0  0  0  0
 10 14  1  0  0  0  0
 11 12  1  0  0  0  0
 12 13  2  0  0  0  0
 13 14  1  0  0  0  0
 13 15  1  0  0  0  0
 15 16  1  0  0  0  0
 15 17  2  0  0  0  0
M  CHG  2  15   1  16  -1
M  END
>  <ActivityOutcome_CPDBAS_Rat>
active

>  <cdk:Formula>
[]

>  <TD50_Rat_mmol>
0.0348

>  <net.bioclipse.cdk.fingerprint>
IAAAADmKCSdjQVAIAIDoICBKJAQABbrBcSjEQYCtoAxAAIFgIBQAAXCSgAAAcQOKJILE4EYIgAPAAiwAwASCAIFQADIicAQAQxAAAERNxKUQAI4CEABEAMTAJqAiAICNIkBUQBQgBIiJFHolYJCmAYCMgABC0ADgIhAIAcKCogA=

$$$$

 OpenBabel04131118512D

 13 14  0  0  0  0  0  0  0  0999 V2000
    5.5934   -1.4390    0.0000 C   0  0  0  0  0  0  0  0  0  0  0  0
    5.8719   -0.1393    0.0000 N   0  0  0  0  0  0  0  0  0  0  0  0
    7.1948    0.0000    0.0000 C   0  0  0  0  0  0  0  0  0  0  0  0
    7.7363   -1.2146    0.0000 S   0  0  0  0  0  0  0  0  0  0  0  0
    6.7461   -2.1043    0.0000 C   0  0  0  0  0  0  0  0  0  0  0  0
    4.3788   -1.9805    0.0000 C   0  0  0  0  0  0  0  0  0  0  0  0
    4.1080   -3.2802    0.0000 C   0  0  0  0  0  0  0  0  0  0  0  0
    2.7851   -3.4195    0.0000 C   0  0  0  0  0  0  0  0  0  0  0  0
    2.2435   -2.2049    0.0000 C   0  0  0  0  0  0  0  0  0  0  0  0
    3.2261   -1.3152    0.0000 O   0  0  0  0  0  0  0  0  0  0  0  0
    0.9438   -1.9263    0.0000 N   0  3  0  0  0  0  0  0  0  0  0  0
    0.0000   -2.8702    0.0000 O   0  5  0  0  0  0  0  0  0  0  0  0
    0.5957   -0.6421    0.0000 O   0  0  0  0  0  0  0  0  0  0  0  0
  1  2  1  0  0  0  0
  1  5  2  0  0  0  0
  1  6  1  0  0  0  0
  2  3  2  0  0  0  0
  3  4  1  0  0  0  0
  4  5  1  0  0  0  0
  6  7  2  0  0  0  0
  6 10  1  0  0  0  0
  7  8  1  0  0  0  0
  8  9  2  0  0  0  0
  9 10  1  0  0  0  0
  9 11  1  0  0  0  0
 11 12  1  0  0  0  0
 11 13  2  0  0  0  0
M  CHG  2  11   1  12  -1
M  END
>  <ActivityOutcome_CPDBAS_Rat>
active

>  <cdk:Formula>
[]

>  <TD50_Rat_mmol>
0.0391

>  <net.bioclipse.cdk.fingerprint>
Agb4wgMjYAAQCAWQkAABSqAigJEQwRABgEEELEAGgACRYIAGAARAGJQAAmAAAKQAAQACAAQGQAKAAAAGoQABRAIAVAQAEAIQAABALIAAEDACBZACBADEoAAgIIiABGAAVAIVIIUAeCByAECwigAIAMAAAoAAAAAICAACAgCA

$$$$

 OpenBabel04131118512D

 17 18  0  0  0  0  0  0  0  0999 V2000
    1.2652   -1.2985    0.0000 N   0  3  0  0  0  0  0  0  0  0  0  0
    0.0000   -1.7091    0.0000 O   0  5  0  0  0  0  0  0  0  0  0  0
    1.5426    0.0000    0.0000 O   0  0  0  0  0  0  0  0  0  0  0  0
    2.2529   -2.1863    0.0000 C   0  0  0  0  0  0  0  0  0  0  0  0
    3.5514   -1.9089    0.0000 O   0  0  0  0  0  0  0  0  0  0  0  0
    4.2173   -3.0631    0.0000 C   0  0  0  0  0  0  0  0  0  0  0  0
    3.3294   -4.0508    0.0000 C   0  0  0  0  0  0  0  0  0  0  0  0
    2.1086   -3.5070    0.0000 C   0  0  0  0  0  0  0  0  0  0  0  0
    5.5380   -3.1963    0.0000 C   0  0  0  0  0  0  0  0  0  0  0  0
    6.4258   -2.2085    0.0000 N   0  0  0  0  0  0  0  0  0  0  0  0
    7.6466   -2.7523    0.0000 C   0  0  0  0  0  0  0  0  0  0  0  0
    7.5023   -4.0730    0.0000 S   0  0  0  0  0  0  0  0  0  0  0  0
    6.2039   -4.3505    0.0000 C   0  0  0  0  0  0  0  0  0  0  0  0
    8.8008   -2.0865    0.0000 N   0  0  0  0  0  0  0  0  0  0  0  0
    9.9439   -2.7523    0.0000 C   0  0  0  0  0  0  0  0  0  0  0  0
    9.9439   -4.0841    0.0000 O   0  0  0  0  0  0  0  0  0  0  0  0
   11.0981   -2.0865    0.0000 C   0  0  0  0  0  0  0  0  0  0  0  0
  1  2  1  0  0  0  0
  1  3  2  0  0  0  0
  1  4  1  0  0  0  0
  4  5  1  0  0  0  0
  4  8  2  0  0  0  0
  5  6  1  0  0  0  0
  6  7  2  0  0  0  0
  6  9  1  0  0  0  0
  7  8  1  0  0  0  0
  9 10  1  0  0  0  0
  9 13  2  0  0  0  0
 10 11  2  0  0  0  0
 11 12  1  0  0  0  0
 11 14  1  0  0  0  0
 12 13  1  0  0  0  0
 14 15  1  0  0  0  0
 15 16  2  0  0  0  0
 15 17  1  0  0  0  0
M  CHG  2   1   1   2  -1
M  END
>  <ActivityOutcome_CPDBAS_Rat>
active

>  <cdk:Formula>
[]

>  <TD50_Rat_mmol>
0.0703

>  <net.bioclipse.cdk.fingerprint>
Jgb4wgsnYgBSCCWQsAABSqimgJEQwRABgEEELEAmgQCRZIAmAARAGJQAEmEAAKQARQACQAQGwYKAAIAPoYCBVAIKVAQEEgIQAIDALIzAEDACRZALBAjUoACgIIiIhHABVIIVIKUA+CByAECwqgIIANBIQtEAEAlIGAAWAgCH

$$$$

 OpenBabel04131118512D

 16 17  0  0  0  0  0  0  0  0999 V2000
   10.9589   -1.9945    0.0000 O   0  5  0  0  0  0  0  0  0  0  0  0
    9.8082   -1.3260    0.0000 N   0  3  0  0  0  0  0  0  0  0  0  0
    9.8082    0.0000    0.0000 O   0  0  0  0  0  0  0  0  0  0  0  0
    8.6575   -1.9945    0.0000 C   0  0  0  0  0  0  0  0  0  0  0  0
    8.5151   -3.3205    0.0000 C   0  0  0  0  0  0  0  0  0  0  0  0
    7.2110   -3.5945    0.0000 C   0  0  0  0  0  0  0  0  0  0  0  0
    6.5534   -2.4438    0.0000 C   0  0  0  0  0  0  0  0  0  0  0  0
    7.4411   -1.4575    0.0000 O   0  0  0  0  0  0  0  0  0  0  0  0
    5.2274   -2.3014    0.0000 C   0  0  0  0  0  0  0  0  0  0  0  0
    4.3397   -3.2877    0.0000 C   0  0  0  0  0  0  0  0  0  0  0  0
    3.1233   -2.7507    0.0000 S   0  0  0  0  0  0  0  0  0  0  0  0
    3.2658   -1.4247    0.0000 C   0  0  0  0  0  0  0  0  0  0  0  0
    4.5589   -1.1507    0.0000 N   0  0  0  0  0  0  0  0  0  0  0  0
    2.2795   -0.5370    0.0000 N   0  0  0  0  0  0  0  0  0  0  0  0
    1.0301   -1.0192    0.0000 C   0  0  0  0  0  0  0  0  0  0  0  0
    0.0000   -0.1753    0.0000 O   0  0  0  0  0  0  0  0  0  0  0  0
  1  2  1  0  0  0  0
  2  3  2  0  0  0  0
  2  4  1  0  0  0  0
  4  5  2  0  0  0  0
  4  8  1  0  0  0  0
  5  6  1  0  0  0  0
  6  7  2  0  0  0  0
  7  8  1  0  0  0  0
  7  9  1  0  0  0  0
  9 10  2  0  0  0  0
  9 13  1  0  0  0  0
 10 11  1  0  0  0  0
 11 12  1  0  0  0  0
 12 13  2  0  0  0  0
 12 14  1  0  0  0  0
 14 15  1  0  0  0  0
 15 16  2  0  0  0  0
M  CHG  2   1  -1   2   1
M  END
>  <ActivityOutcome_CPDBAS_Rat>
active

>  <cdk:Formula>
[]

>  <TD50_Rat_mmol>
0.0178

>  <net.bioclipse.cdk.fingerprint>
Jgb4wgsnYAASCAWQsAABSqCigJEQwRABgEEELEAGgQCRZIAmAARAGJQAEmEAAKQARQACQAQGwYKAAIAPoYCBVAICVAQEEgIQAIDALIxAEDACBZADBAjUoACgIIiIhGABVAIVIKUA+CByAECwigIIAMBIQsEAAAlIGAAWAgCH

$$$$

 OpenBabel04131118512D

 22 23  0  0  0  0  0  0  0  0999 V2000
    7.6669   -5.3190    0.0000 C   0  0  0  0  0  0  0  0  0  0  0  0
    6.5208   -5.9866    0.0000 N   0  0  0  0  0  0  0  0  0  0  0  0
    5.3635   -5.3190    0.0000 C   0  0  0  0  0  0  0  0  0  0  0  0
    5.3635   -3.9948    0.0000 N   0  0  0  0  0  0  0  0  0  0  0  0
    6.5208   -3.3271    0.0000 C   0  0  0  0  0  0  0  0  0  0  0  0
    7.6669   -3.9948    0.0000 N   0  0  0  0  0  0  0  0  0  0  0  0
    6.5208   -1.9918    0.0000 N   0  0  0  0  0  0  0  0  0  0  0  0
    7.6669   -1.3353    0.0000 C   0  0  0  0  0  0  0  0  0  0  0  0
    8.8242   -1.9918    0.0000 C   0  0  0  0  0  0  0  0  0  0  0  0
    7.6669    0.0000    0.0000 O   0  0  0  0  0  0  0  0  0  0  0  0
    4.2173   -5.9866    0.0000 C   0  0  0  0  0  0  0  0  0  0  0  0
    4.0727   -7.3108    0.0000 C   0  0  0  0  0  0  0  0  0  0  0  0
    2.7708   -7.5890    0.0000 C   0  0  0  0  0  0  0  0  0  0  0  0
    2.1031   -6.4317    0.0000 C   0  0  0  0  0  0  0  0  0  0  0  0
    2.9933   -5.4525    0.0000 O   0  0  0  0  0  0  0  0  0  0  0  0
    0.7789   -6.2982    0.0000 N   0  3  0  0  0  0  0  0  0  0  0  0
    0.0000   -7.3776    0.0000 O   0  0  0  0  0  0  0  0  0  0  0  0
    0.2448   -5.0853    0.0000 O   0  5  0  0  0  0  0  0  0  0  0  0
    8.8242   -5.9866    0.0000 N   0  0  0  0  0  0  0  0  0  0  0  0
    9.9703   -5.3190    0.0000 C   0  0  0  0  0  0  0  0  0  0  0  0
   11.1276   -5.9866    0.0000 C   0  0  0  0  0  0  0  0  0  0  0  0
    9.9703   -3.9948    0.0000 O   0  0  0  0  0  0  0  0  0  0  0  0
  1  2  2  0  0  0  0
  1  6  1  0  0  0  0
  1 19  1  0  0  0  0
  2  3  1  0  0  0  0
  3  4  2  0  0  0  0
  3 11  1  0  0  0  0
  4  5  1  0  0  0  0
  5  6  2  0  0  0  0
  5  7  1  0  0  0  0
  7  8  1  0  0  0  0
  8  9  1  0  0  0  0
  8 10  2  0  0  0  0
 11 12  2  0  0  0  0
 11 15  1  0  0  0  0
 12 13  1  0  0  0  0
 13 14  2  0  0  0  0
 14 15  1  0  0  0  0
 14 16  1  0  0  0  0
 16 17  2  0  0  0  0
 16 18  1  0  0  0  0
 19 20  1  0  0  0  0
 20 21  1  0  0  0  0
 20 22  2  0  0  0  0
M  CHG  2  16   1  18  -1
M  END
>  <ActivityOutcome_CPDBAS_Rat>
active

>  <cdk:Formula>
[]

>  <TD50_Rat_mmol>
0.046

>  <net.bioclipse.cdk.fingerprint>
ICQCOIpLpyJBUIgAkLEIAEogoACAEMEUEIBBAASAJgMAgGCABQIBAJKAAAAhABQgAAADEkAAAkAQAACAjIDAgAACARQEhAAAUAAAwAyIgBIQAkAYFSQI5IAAhCAAgASgAFaAVCA1NCgAIgBQlIoACACQAgPRGBAJUBAIDgIAIw==

$$$$

 OpenBabel04131118512D

 15 17  0  0  0  0  0  0  0  0999 V2000
    4.2842    0.0000    0.0000 O   0  0  0  0  0  0  0  0  0  0  0  0
    4.2842   -1.3283    0.0000 N   0  3  0  0  0  0  0  0  0  0  0  0
    3.1294   -1.9925    0.0000 C   0  0  0  0  0  0  0  0  0  0  0  0
    1.9805   -1.3283    0.0000 C   0  0  0  0  0  0  0  0  0  0  0  0
    0.8257   -1.9925    0.0000 C   0  0  0  0  0  0  0  0  0  0  0  0
    0.8257   -3.3268    0.0000 C   0  0  0  0  0  0  0  0  0  0  0  0
    1.9805   -3.9910    0.0000 C   0  0  0  0  0  0  0  0  0  0  0  0
    3.1294   -3.3268    0.0000 C   0  0  0  0  0  0  0  0  0  0  0  0
    4.2842   -3.9910    0.0000 C   0  0  0  0  0  0  0  0  0  0  0  0
    4.2842   -5.3193    0.0000 C   0  0  0  0  0  0  0  0  0  0  0  0
    3.1294   -5.9835    0.0000 C   0  0  0  0  0  0  0  0  0  0  0  0
    1.9805   -5.3193    0.0000 C   0  0  0  0  0  0  0  0  0  0  0  0
    0.6642   -5.5168    0.0000 C   0  0  0  0  0  0  0  0  0  0  0  0
    0.0000   -4.3620    0.0000 C   0  0  0  0  0  0  0  0  0  0  0  0
    5.4330   -1.9925    0.0000 O   0  5  0  0  0  0  0  0  0  0  0  0
  1  2  2  0  0  0  0
  2  3  1  0  0  0  0
  2 15  1  0  0  0  0
  3  4  2  0  0  0  0
  3  8  1  0  0  0  0
  4  5  1  0  0  0  0
  5  6  2  0  0  0  0
  6  7  1  0  0  0  0
  6 14  1  0  0  0  0
  7  8  2  0  0  0  0
  7 12  1  0  0  0  0
  8  9  1  0  0  0  0
  9 10  2  0  0  0  0
 10 11  1  0  0  0  0
 11 12  2  0  0  0  0
 12 13  1  0  0  0  0
 13 14  1  0  0  0  0
M  CHG  2   2   1  15  -1
M  END
>  <ActivityOutcome_CPDBAS_Rat>
active

>  <cdk:Formula>
[]

>  <TD50_Rat_mmol>
0.0435

>  <net.bioclipse.cdk.fingerprint>
QBACAAAiAAAYAABAAQAIAAAAABhBAAAAQAAEAAYIABBgAAQAAAAAAAAIAAAAMBAAjAIAAABCBAAAQIAIAAAECAEAAIAABAAAAQAAgAAAIASABAAAAADAAAAQEIAAIAgEAEAgAAAAQCAiQJAEAAAAHCCAAAAEQAAAAAADEAA=

$$$$

 OpenBabel04131118512D

 11 11  0  0  0  0  0  0  0  0999 V2000
    1.9971    0.0000    0.0000 C   0  0  0  0  0  0  0  0  0  0  0  0
    2.6581   -1.1545    0.0000 O   0  0  0  0  0  0  0  0  0  0  0  0
    1.9971   -2.3043    0.0000 C   0  0  0  0  0  0  0  0  0  0  0  0
    2.6581   -3.4588    0.0000 C   0  0  0  0  0  0  0  0  0  0  0  0
    1.9971   -4.6086    0.0000 C   0  0  0  0  0  0  0  0  0  0  0  0
    0.6657   -4.6086    0.0000 C   0  0  0  0  0  0  0  0  0  0  0  0
    0.0000   -3.4588    0.0000 C   0  0  0  0  0  0  0  0  0  0  0  0
    0.6657   -2.3043    0.0000 C   0  0  0  0  0  0  0  0  0  0  0  0
    3.9895   -3.4588    0.0000 N   0  3  0  0  0  0  0  0  0  0  0  0
    4.6552   -2.3043    0.0000 O   0  0  0  0  0  0  0  0  0  0  0  0
    4.6552   -4.6086    0.0000 O   0  5  0  0  0  0  0  0  0  0  0  0
  1  2  1  0  0  0  0
  2  3  1  0  0  0  0
  3  4  2  0  0  0  0
  3  8  1  0  0  0  0
  4  5  1  0  0  0  0
  4  9  1  0  0  0  0
  5  6  2  0  0  0  0
  6  7  1  0  0  0  0
  7  8  2  0  0  0  0
  9 10  2  0  0  0  0
  9 11  1  0  0  0  0
M  CHG  2   9   1  11  -1
M  END
>  <ActivityOutcome_CPDBAS_Rat>
active

>  <cdk:Formula>
[]

>  <TD50_Rat_mmol>
0.102

>  <net.bioclipse.cdk.fingerprint>
EAIAACAAQAoAEAAAAAgAAAAAGECAAAAAAAQABgAAAmEABAAACAAAACAAAAAAAAAgAgAAAEAEAIAAAAAAAAoQABAAAACAAAAEAACAgAIAAAAAAAAAAAAAAAAQAAAgAAQAACAgIABAIAIAAAAAAAAAAIAAAAAAAAAAACIwAA==

$$$$

 OpenBabel04131118512D

  9  9  0  0  0  0  0  0  0  0999 V2000
    0.0000   -2.3037    0.0000 O   0  0  0  0  0  0  0  0  0  0  0  0
    0.6655   -1.1542    0.0000 N   0  3  0  0  0  0  0  0  0  0  0  0
    1.9965   -1.1542    0.0000 C   0  0  0  0  0  0  0  0  0  0  0  0
    2.6574    0.0000    0.0000 C   0  0  0  0  0  0  0  0  0  0  0  0
    3.9884    0.0000    0.0000 C   0  0  0  0  0  0  0  0  0  0  0  0
    4.6539   -1.1542    0.0000 C   0  0  0  0  0  0  0  0  0  0  0  0
    3.9884   -2.3037    0.0000 C   0  0  0  0  0  0  0  0  0  0  0  0
    2.6574   -2.3037    0.0000 C   0  0  0  0  0  0  0  0  0  0  0  0
    0.0000    0.0000    0.0000 O   0  5  0  0  0  0  0  0  0  0  0  0
  1  2  2  0  0  0  0
  2  3  1  0  0  0  0
  2  9  1  0  0  0  0
  3  4  2  0  0  0  0
  3  8  1  0  0  0  0
  4  5  1  0  0  0  0
  5  6  2  0  0  0  0
  6  7  1  0  0  0  0
  7  8  2  0  0  0  0
M  CHG  2   2   1   9  -1
M  END
>  <ActivityOutcome_CPDBAS_Rat>
active

>  <cdk:Formula>
[]

>  <TD50_Rat_mmol>
0.207

>  <net.bioclipse.cdk.fingerprint>
EAIAACAAAAgAAAAAAAgAAAAAGEAAAAAAAAQABgAAAGAABAAAAAAAAAAAAAAAAAAAAgAAAEAEAAAAAAAAAAAAAAAAAAAAAAAAAACAAAAAAAAAAAAAAAAAAAAQAAAgAAQAACAAAABAIAIAAAAAAAAAAIAAAAAAAAAAAAIQAA==

$$$$

 OpenBabel04131118512D

 12 12  0  0  0  0  0  0  0  0999 V2000
    0.0000    0.0000    0.0000 O   0  0  0  0  0  0  0  0  0  0  0  0
    0.6654   -1.1511    0.0000 C   0  0  0  0  0  0  0  0  0  0  0  0
    0.0000   -2.3023    0.0000 O   0  0  0  0  0  0  0  0  0  0  0  0
    1.9962   -1.1511    0.0000 C   0  0  0  0  0  0  0  0  0  0  0  0
    2.6616    0.0000    0.0000 C   0  0  0  0  0  0  0  0  0  0  0  0
    3.9924    0.0000    0.0000 C   0  0  0  0  0  0  0  0  0  0  0  0
    4.6578   -1.1511    0.0000 C   0  0  0  0  0  0  0  0  0  0  0  0
    3.9924   -2.3023    0.0000 C   0  0  0  0  0  0  0  0  0  0  0  0
    2.6616   -2.3023    0.0000 C   0  0  0  0  0  0  0  0  0  0  0  0
    5.9885   -1.1511    0.0000 N   0  3  0  0  0  0  0  0  0  0  0  0
    6.6539    0.0000    0.0000 O   0  0  0  0  0  0  0  0  0  0  0  0
    6.6539   -2.3023    0.0000 O   0  5  0  0  0  0  0  0  0  0  0  0
  1  2  1  0  0  0  0
  2  3  2  0  0  0  0
  2  4  1  0  0  0  0
  4  5  2  0  0  0  0
  4  9  1  0  0  0  0
  5  6  1  0  0  0  0
  6  7  2  0  0  0  0
  7  8  1  0  0  0  0
  7 10  1  0  0  0  0
  8  9  2  0  0  0  0
 10 11  2  0  0  0  0
 10 12  1  0  0  0  0
M  CHG  2  10   1  12  -1
M  END
>  <ActivityOutcome_CPDBAS_Rat>
active

>  <cdk:Formula>
[]

>  <TD50_Rat_mmol>
1.72

>  <net.bioclipse.cdk.fingerprint>
EAIAACAAgAoAAAAQAAgAAAAAGEEAAABAAAQABgAAAGgABAAEAAAAAAAAAAAgRAAAAgAAIEEEAAAQAAAAAAQAAAAAAAAAAAAAAACAAAAAAAAAAAAAAIAQAAAQgAAgAEQAQCAEAIBAIAJAgAAIAIAAAIBQCEAAAQAAAAIQAA==

$$$$

 OpenBabel04131118512D

  7  6  0  0  0  0  0  0  0  0999 V2000
    0.0000   -2.3106    0.0000 C   0  0  0  0  0  0  0  0  0  0  0  0
    1.3282   -2.3106    0.0000 C   0  0  0  0  0  0  0  0  0  0  0  0
    3.3241   -1.1622    0.0000 O   0  5  0  0  0  0  0  0  0  0  0  0
    1.9993   -1.1622    0.0000 N   0  3  0  0  0  0  0  0  0  0  0  0
    1.3282    0.0000    0.0000 O   0  0  0  0  0  0  0  0  0  0  0  0
    1.9993   -3.4590    0.0000 C   0  0  0  0  0  0  0  0  0  0  0  0
    3.3241   -3.4590    0.0000 C   0  0  0  0  0  0  0  0  0  0  0  0
  1  2  1  0  0  0  0
  2  4  1  0  0  0  0
  2  6  1  0  0  0  0
  3  4  1  0  0  0  0
  4  5  2  0  0  0  0
  6  7  1  0  0  0  0
M  CHG  2   3  -1   4   1
M  END
>  <ActivityOutcome_CPDBAS_Rat>
active

>  <cdk:Formula>
[]

>  <TD50_Rat_mmol>
0.0277

>  <net.bioclipse.cdk.fingerprint>
IgAACAABAAAAAAAAAAAQAAAAAAAAAAAEAAAAYQAAAAAAAAAAAAgAACAAAAACAAAAAAAAAEAAAAAAAAAAAAAAAAAAAAAAAAAAAAAAAAAAAAAAAAAAAAAAAAAABAAAAAAAAAAAAAAQAQAAAAAAAAAAAAAAAAAAAgAA

$$$$

 OpenBabel04131118512D

 18 19  0  0  0  0  0  0  0  0999 V2000
    2.3005    0.0000    0.0000 Cl  0  0  0  0  0  0  0  0  0  0  0  0
    2.3005   -1.3264    0.0000 C   0  0  0  0  0  0  0  0  0  0  0  0
    3.4508   -1.9896    0.0000 C   0  0  0  0  0  0  0  0  0  0  0  0
    3.4508   -3.3264    0.0000 C   0  0  0  0  0  0  0  0  0  0  0  0
    2.3005   -3.9897    0.0000 C   0  0  0  0  0  0  0  0  0  0  0  0
    1.1503   -3.3264    0.0000 C   0  0  0  0  0  0  0  0  0  0  0  0
    1.1503   -1.9896    0.0000 C   0  0  0  0  0  0  0  0  0  0  0  0
    0.0000   -3.9897    0.0000 Cl  0  0  0  0  0  0  0  0  0  0  0  0
    4.6011   -1.3264    0.0000 O   0  0  0  0  0  0  0  0  0  0  0  0
    5.7617   -1.9896    0.0000 C   0  0  0  0  0  0  0  0  0  0  0  0
    6.9120   -1.3264    0.0000 C   0  0  0  0  0  0  0  0  0  0  0  0
    8.0622   -1.9896    0.0000 C   0  0  0  0  0  0  0  0  0  0  0  0
    8.0622   -3.3264    0.0000 C   0  0  0  0  0  0  0  0  0  0  0  0
    6.9120   -3.9897    0.0000 C   0  0  0  0  0  0  0  0  0  0  0  0
    5.7617   -3.3264    0.0000 C   0  0  0  0  0  0  0  0  0  0  0  0
    9.2125   -3.9897    0.0000 N   0  3  0  0  0  0  0  0  0  0  0  0
    9.2125   -5.3161    0.0000 O   0  0  0  0  0  0  0  0  0  0  0  0
   10.3627   -3.3264    0.0000 O   0  5  0  0  0  0  0  0  0  0  0  0
  1  2  1  0  0  0  0
  2  3  2  0  0  0  0
  2  7  1  0  0  0  0
  3  4  1  0  0  0  0
  3  9  1  0  0  0  0
  4  5  2  0  0  0  0
  5  6  1  0  0  0  0
  6  7  2  0  0  0  0
  6  8  1  0  0  0  0
  9 10  1  0  0  0  0
 10 11  2  0  0  0  0
 10 15  1  0  0  0  0
 11 12  1  0  0  0  0
 12 13  2  0  0  0  0
 13 14  1  0  0  0  0
 13 16  1  0  0  0  0
 14 15  2  0  0  0  0
 16 17  2  0  0  0  0
 16 18  1  0  0  0  0
M  CHG  2  16   1  18  -1
M  END
>  <ActivityOutcome_CPDBAS_Rat>
active

>  <cdk:Formula>
[]

>  <TD50_Rat_mmol>
1.48

>  <net.bioclipse.cdk.fingerprint>
GAAAEgIAACAAgEoAIAAAAAgAAAKAGECIAAEAAAQABgAAAuFABAAEEAAAAAAAAAAoAAAgAgAAAGAEhAQAAAAhAAKUAAAAAAAAAAAEAACAoABFAAAAAAAAAQECAAAQAAAgAAQBgCgkIABAIhIACAAAAAAAAIAAAAAAAAAAACIwAA==

$$$$

 OpenBabel04131118512D

 16 18  0  0  0  0  0  0  0  0999 V2000
    4.3802   -1.8357    0.0000 C   0  0  0  0  0  0  0  0  0  0  0  0
    4.3802   -3.0898    0.0000 C   0  0  0  0  0  0  0  0  0  0  0  0
    3.2897   -1.1996    0.0000 C   0  0  0  0  0  0  0  0  0  0  0  0
    2.1901   -1.8357    0.0000 C   0  0  0  0  0  0  0  0  0  0  0  0
    2.1901   -3.0898    0.0000 C   0  0  0  0  0  0  0  0  0  0  0  0
    0.0000   -3.0989    0.0000 C   0  0  0  0  0  0  0  0  0  0  0  0
    1.0996   -3.7259    0.0000 C   0  0  0  0  0  0  0  0  0  0  0  0
    0.0000   -1.8357    0.0000 C   0  0  0  0  0  0  0  0  0  0  0  0
    1.0996   -1.1996    0.0000 C   0  0  0  0  0  0  0  0  0  0  0  0
    6.5794   -3.0989    0.0000 C   0  0  0  0  0  0  0  0  0  0  0  0
    5.4798   -3.7259    0.0000 C   0  0  0  0  0  0  0  0  0  0  0  0
    6.5794   -1.8357    0.0000 C   0  0  0  0  0  0  0  0  0  0  0  0
    5.4798   -1.1996    0.0000 C   0  0  0  0  0  0  0  0  0  0  0  0
    9.0875   -1.1814    0.0000 O   0  5  0  0  0  0  0  0  0  0  0  0
    7.7335   -1.1814    0.0000 N   0  3  0  0  0  0  0  0  0  0  0  0
    7.0519    0.0000    0.0000 O   0  0  0  0  0  0  0  0  0  0  0  0
  1  3  1  0  0  0  0
  1  2  2  0  0  0  0
  1 13  1  0  0  0  0
  2 11  1  0  0  0  0
  2  5  1  0  0  0  0
  3  4  1  0  0  0  0
  4  5  2  0  0  0  0
  4  9  1  0  0  0  0
  5  7  1  0  0  0  0
  6  7  2  0  0  0  0
  6  8  1  0  0  0  0
  8  9  2  0  0  0  0
 10 11  2  0  0  0  0
 10 12  1  0  0  0  0
 12 13  2  0  0  0  0
 12 15  1  0  0  0  0
 14 15  1  0  0  0  0
 15 16  2  0  0  0  0
M  CHG  2  14  -1  15   1
M  END
>  <ActivityOutcome_CPDBAS_Rat>
active

>  <cdk:Formula>
[]

>  <TD50_Rat_mmol>
0.00135

>  <net.bioclipse.cdk.fingerprint>
BAEQAgAAIAUACACAIAEwCQAgABBYQUAAAEACDAAHCAAAYCFEEAAAgAAAAkACACAABAADAIQEQAUIAEAAAQAABAjAAIAQQQAAAABAAKBBCAAAAOAAoAAAgAAAABigACBADQBAIQAAAEBiAmCBBQAABBQKgIACQRBICAAAAhAA

$$$$

 OpenBabel04131118512D

 17 18  0  0  0  0  0  0  0  0999 V2000
    9.0879   -4.6811    0.0000 O   0  0  0  0  0  0  0  0  0  0  0  0
    8.6718   -3.4139    0.0000 C   0  0  0  0  0  0  0  0  0  0  0  0
    7.4141   -3.0072    0.0000 N   0  0  0  0  0  0  0  0  0  0  0  0
    7.4141   -1.6738    0.0000 C   0  0  0  0  0  0  0  0  0  0  0  0
    8.6718   -1.2672    0.0000 C   0  0  0  0  0  0  0  0  0  0  0  0
    9.0879    0.0000    0.0000 O   0  0  0  0  0  0  0  0  0  0  0  0
    9.4567   -2.3358    0.0000 N   0  0  0  0  0  0  0  0  0  0  0  0
    6.3360   -3.7827    0.0000 N   0  0  0  0  0  0  0  0  0  0  0  0
    5.1161   -3.2437    0.0000 C   0  0  0  0  0  0  0  0  0  0  0  0
    4.0380   -4.0286    0.0000 C   0  0  0  0  0  0  0  0  0  0  0  0
    4.0380   -5.3620    0.0000 C   0  0  0  0  0  0  0  0  0  0  0  0
    2.7803   -5.7686    0.0000 C   0  0  0  0  0  0  0  0  0  0  0  0
    1.9954   -4.6905    0.0000 C   0  0  0  0  0  0  0  0  0  0  0  0
    2.7803   -3.6125    0.0000 O   0  0  0  0  0  0  0  0  0  0  0  0
    0.6620   -4.6905    0.0000 N   0  3  0  0  0  0  0  0  0  0  0  0
    0.0000   -5.8442    0.0000 O   0  0  0  0  0  0  0  0  0  0  0  0
    0.0000   -3.5368    0.0000 O   0  5  0  0  0  0  0  0  0  0  0  0
  1  2  2  0  0  0  0
  2  3  1  0  0  0  0
  2  7  1  0  0  0  0
  3  4  1  0  0  0  0
  3  8  1  0  0  0  0
  4  5  1  0  0  0  0
  5  6  2  0  0  0  0
  5  7  1  0  0  0  0
  8  9  2  0  0  0  0
  9 10  1  0  0  0  0
 10 11  2  0  0  0  0
 10 14  1  0  0  0  0
 11 12  1  0  0  0  0
 12 13  2  0  0  0  0
 13 14  1  0  0  0  0
 13 15  1  0  0  0  0
 15 16  2  0  0  0  0
 15 17  1  0  0  0  0
M  CHG  2  15   1  17  -1
M  END
>  <ActivityOutcome_CPDBAS_Rat>
active

>  <cdk:Formula>
[]

>  <TD50_Rat_mmol>
0.684

>  <net.bioclipse.cdk.fingerprint>
DjAAMBJBICMQEEqAAeIgAEu4YAACEuVQBABQAAQgJEBAoGAgBACCABICAAEAKcEggIAAAkAAQEsABgCABIASgAAQEAJgAAABAgABUB2AwAAAA8AQChQAQIAAACAAgQciBEQgFCQEBQIAMglAkDIAgADIpALQAEgAAAACIAMgIA==

$$$$

 OpenBabel04131118512D

 16 17  0  0  0  0  0  0  0  0999 V2000
    9.7089   -2.5923    0.0000 O   0  5  0  0  0  0  0  0  0  0  0  0
    8.4953   -2.0486    0.0000 N   0  3  0  0  0  0  0  0  0  0  0  0
    8.3594   -0.7282    0.0000 O   0  0  0  0  0  0  0  0  0  0  0  0
    7.4176   -2.8350    0.0000 C   0  0  0  0  0  0  0  0  0  0  0  0
    7.4176   -4.1651    0.0000 C   0  0  0  0  0  0  0  0  0  0  0  0
    6.1555   -4.5729    0.0000 C   0  0  0  0  0  0  0  0  0  0  0  0
    5.3690   -3.4952    0.0000 C   0  0  0  0  0  0  0  0  0  0  0  0
    6.1555   -2.4175    0.0000 O   0  0  0  0  0  0  0  0  0  0  0  0
    4.0389   -3.4952    0.0000 C   0  0  0  0  0  0  0  0  0  0  0  0
    3.3787   -2.3496    0.0000 N   0  0  0  0  0  0  0  0  0  0  0  0
    2.0486   -2.3496    0.0000 N   0  0  0  0  0  0  0  0  0  0  0  0
    1.2622   -3.4175    0.0000 C   0  0  0  0  0  0  0  0  0  0  0  0
    0.0000   -3.0098    0.0000 C   0  0  0  0  0  0  0  0  0  0  0  0
    0.0000   -1.6796    0.0000 N   0  0  0  0  0  0  0  0  0  0  0  0
    1.2622   -1.2719    0.0000 C   0  0  0  0  0  0  0  0  0  0  0  0
    1.6796    0.0000    0.0000 O   0  0  0  0  0  0  0  0  0  0  0  0
  1  2  1  0  0  0  0
  2  3  2  0  0  0  0
  2  4  1  0  0  0  0
  4  5  2  0  0  0  0
  4  8  1  0  0  0  0
  5  6  1  0  0  0  0
  6  7  2  0  0  0  0
  7  8  1  0  0  0  0
  7  9  1  0  0  0  0
  9 10  2  0  0  0  0
 10 11  1  0  0  0  0
 11 12  1  0  0  0  0
 11 15  1  0  0  0  0
 12 13  1  0  0  0  0
 13 14  1  0  0  0  0
 14 15  1  0  0  0  0
 15 16  2  0  0  0  0
M  CHG  2   1  -1   2   1
M  END
>  <ActivityOutcome_CPDBAS_Rat>
active

>  <cdk:Formula>
[]

>  <TD50_Rat_mmol>
0.0235

>  <net.bioclipse.cdk.fingerprint>
DhAAMAJBICMQEEoAAeIgAEooYAAAEuVQBABQAAQgJEBAIGAgBACCABICAAEAKYEggIAAAkAAQEsAAgCABIASgAAQEAJgAAAAAgABUB2AgAAAA8AQChQAQIAAACAAgQciBEQgFCQEBQIAMglAkDIAAADIpALQAEgAAAACIAMgIA==

$$$$

 OpenBabel04131118512D

  8  7  0  0  0  0  0  0  0  0999 V2000
    6.9115   -1.9974    0.0000 Cl  0  0  0  0  0  0  0  0  0  0  0  0
    5.7573   -1.3339    0.0000 C   0  0  0  0  0  0  0  0  0  0  0  0
    4.6100   -1.9974    0.0000 C   0  0  0  0  0  0  0  0  0  0  0  0
    3.4558   -1.3339    0.0000 N   0  0  0  0  0  0  0  0  0  0  0  0
    3.4558    0.0000    0.0000 C   0  0  0  0  0  0  0  0  0  0  0  0
    2.3015   -1.9974    0.0000 C   0  0  0  0  0  0  0  0  0  0  0  0
    1.1542   -1.3339    0.0000 C   0  0  0  0  0  0  0  0  0  0  0  0
    0.0000   -1.9974    0.0000 Cl  0  0  0  0  0  0  0  0  0  0  0  0
  1  2  1  0  0  0  0
  2  3  1  0  0  0  0
  3  4  1  0  0  0  0
  4  5  1  0  0  0  0
  4  6  1  0  0  0  0
  6  7  1  0  0  0  0
  7  8  1  0  0  0  0
M  END
>  <ActivityOutcome_CPDBAS_Rat>
active

>  <cdk:Formula>
[]

>  <TD50_Rat_mmol>
0.0000731

>  <net.bioclipse.cdk.fingerprint>
EAAAAAAAAgAAAAAAAAAAAAIAAAAAAAAAAAAAAAAAAAAA4AAAAAAAAAAAAAAAACAAAAACAAAAAAAAAIAAAAEAAAAIAAAAABAAAAAAAACAAAAAAAAAAAAAAAAAAAAAAAAAAAAAAAAAAAAAAAAAAAAAAAAABAAAAAAAAAAAAgAA

$$$$

 OpenBabel04131118512D

  9  8  0  0  0  0  0  0  0  0999 V2000
    3.4581   -1.1568    0.0000 N   0  3  0  0  0  0  0  0  0  0  0  0
    4.1252   -2.3074    0.0000 C   0  0  0  0  0  0  0  0  0  0  0  0
    5.4533   -2.3074    0.0000 C   0  0  0  0  0  0  0  0  0  0  0  0
    6.1205   -1.1568    0.0000 Cl  0  0  0  0  0  0  0  0  0  0  0  0
    2.3074   -1.8178    0.0000 C   0  0  0  0  0  0  0  0  0  0  0  0
    1.1507   -1.1568    0.0000 C   0  0  0  0  0  0  0  0  0  0  0  0
    0.0000   -1.8178    0.0000 Cl  0  0  0  0  0  0  0  0  0  0  0  0
    2.7909    0.0000    0.0000 C   0  0  0  0  0  0  0  0  0  0  0  0
    4.6087   -0.4896    0.0000 O   0  5  0  0  0  0  0  0  0  0  0  0
  1  2  1  0  0  0  0
  1  5  1  0  0  0  0
  1  8  1  0  0  0  0
  1  9  1  0  0  0  0
  2  3  1  0  0  0  0
  3  4  1  0  0  0  0
  5  6  1  0  0  0  0
  6  7  1  0  0  0  0
M  CHG  2   1   1   9  -1
M  END
>  <ActivityOutcome_CPDBAS_Rat>
active

>  <cdk:Formula>
[]

>  <TD50_Rat_mmol>
0.00444

>  <net.bioclipse.cdk.fingerprint>
EAAAAAAAIgAACAAAAAAAAAIAAAAAAAAAAAAAAAAAAAAA4AAAAAAAAAAAAAAAACAAAAACAAAAAAAAAIAAAAEAAAAIAAEAABAAAAAAAACAAAAAAAAAAAAAAAAAAAAAAAAAAAAAAAAAAAAAAAAAAAAAAAAABAAAAAAAAAAAAgAA

$$$$

 OpenBabel04131118512D

  4  3  0  0  0  0  0  0  0  0999 V2000
    0.0000   -1.1505    0.0000 C   0  0  0  0  0  0  0  0  0  0  0  0
    1.3323   -1.1505    0.0000 N   0  3  0  0  0  0  0  0  0  0  0  0
    1.9973    0.0000    0.0000 O   0  0  0  0  0  0  0  0  0  0  0  0
    1.9973   -2.3010    0.0000 O   0  5  0  0  0  0  0  0  0  0  0  0
  1  2  1  0  0  0  0
  2  3  2  0  0  0  0
  2  4  1  0  0  0  0
M  CHG  2   2   1   4  -1
M  END
>  <ActivityOutcome_CPDBAS_Rat>
active

>  <cdk:Formula>
[]

>  <TD50_Rat_mmol>
0.662

>  <net.bioclipse.cdk.fingerprint>
CAAAAAAAAAAAAAAQAAAAAAAAAAAEAAAAYAAAAAAAAAAAAAAAAAAAAAACAAAAAAAAAAAAAAAAAAAAAAAAAAAAAAAAAAAAAAAAAAAAAAAAAAAAAAAAAAAABAAAAAAAAAAAAAAAAAAAAAAAAAAAAAAAAAAAAgAA

$$$$

 OpenBabel04131118512D

  8  7  0  0  0  0  0  0  0  0999 V2000
    3.4583   -2.6570    0.0000 O   0  0  0  0  0  0  0  0  0  0  0  0
    1.1466   -2.6570    0.0000 O   0  5  0  0  0  0  0  0  0  0  0  0
    2.3024   -1.9939    0.0000 N   0  3  0  0  0  0  0  0  0  0  0  0
    0.0000   -0.6631    0.0000 C   0  0  0  0  0  0  0  0  0  0  0  0
    1.1466    0.0000    0.0000 C   0  0  0  0  0  0  0  0  0  0  0  0
    2.3024   -0.6631    0.0000 C   0  0  0  0  0  0  0  0  0  0  0  0
    3.4583    0.0000    0.0000 C   0  0  0  0  0  0  0  0  0  0  0  0
    4.6049   -0.6631    0.0000 C   0  0  0  0  0  0  0  0  0  0  0  0
  1  3  2  0  0  0  0
  2  3  1  0  0  0  0
  3  6  1  0  0  0  0
  4  5  1  0  0  0  0
  5  6  1  0  0  0  0
  6  7  1  0  0  0  0
  7  8  1  0  0  0  0
M  CHG  2   2  -1   3   1
M  END
>  <ActivityOutcome_CPDBAS_Rat>
active

>  <cdk:Formula>
[]

>  <TD50_Rat_mmol>
0.0202

>  <net.bioclipse.cdk.fingerprint>
IgAACAABAAAAAAAAAAAQAAAAAAAAAAAEAAEAYQAAAAAAAAAAAAgAACAAAAACAAAAAAAAAEAAAAAAAAAAAAAAAAAAAAAAAAAAAAAAAAAAAAAAAAAAAAAAAAAABAAAAAAAAAAAAAAQAQAAAAAAAAAAAAAAAAAAAgAA

$$$$

 OpenBabel04131118512D

 19 22  0  0  0  0  0  0  0  0999 V2000
    6.9107   -3.9916    0.0000 O   0  0  0  0  0  0  0  0  0  0  0  0
    6.9107   -2.6611    0.0000 N   0  3  0  0  0  0  0  0  0  0  0  0
    5.7576   -1.9918    0.0000 C   0  0  0  0  0  0  0  0  0  0  0  0
    5.7576   -0.6612    0.0000 C   0  0  0  0  0  0  0  0  0  0  0  0
    4.6045    0.0000    0.0000 C   0  0  0  0  0  0  0  0  0  0  0  0
    3.4594   -0.6612    0.0000 C   0  0  0  0  0  0  0  0  0  0  0  0
    3.4594   -1.9918    0.0000 C   0  0  0  0  0  0  0  0  0  0  0  0
    2.3063   -2.6611    0.0000 C   0  0  0  0  0  0  0  0  0  0  0  0
    2.3063   -3.9916    0.0000 C   0  0  0  0  0  0  0  0  0  0  0  0
    3.4594   -4.6528    0.0000 C   0  0  0  0  0  0  0  0  0  0  0  0
    4.6045   -3.9916    0.0000 C   0  0  0  0  0  0  0  0  0  0  0  0
    4.6045   -2.6611    0.0000 C   0  0  0  0  0  0  0  0  0  0  0  0
    1.1531   -4.6528    0.0000 C   0  0  0  0  0  0  0  0  0  0  0  0
    0.0000   -3.9916    0.0000 C   0  0  0  0  0  0  0  0  0  0  0  0
    0.0000   -2.6611    0.0000 C   0  0  0  0  0  0  0  0  0  0  0  0
    1.1531   -1.9918    0.0000 C   0  0  0  0  0  0  0  0  0  0  0  0
    1.1531   -0.6612    0.0000 C   0  0  0  0  0  0  0  0  0  0  0  0
    2.3063    0.0000    0.0000 C   0  0  0  0  0  0  0  0  0  0  0  0
    8.0639   -1.9918    0.0000 O   0  5  0  0  0  0  0  0  0  0  0  0
  1  2  2  0  0  0  0
  2  3  1  0  0  0  0
  2 19  1  0  0  0  0
  3  4  2  0  0  0  0
  3 12  1  0  0  0  0
  4  5  1  0  0  0  0
  5  6  2  0  0  0  0
  6  7  1  0  0  0  0
  6 18  1  0  0  0  0
  7  8  2  0  0  0  0
  7 12  1  0  0  0  0
  8  9  1  0  0  0  0
  8 16  1  0  0  0  0
  9 10  2  0  0  0  0
  9 13  1  0  0  0  0
 10 11  1  0  0  0  0
 11 12  2  0  0  0  0
 13 14  2  0  0  0  0
 14 15  1  0  0  0  0
 15 16  2  0  0  0  0
 16 17  1  0  0  0  0
 17 18  2  0  0  0  0
M  CHG  2   2   1  19  -1
M  END
>  <ActivityOutcome_CPDBAS_Rat>
active

>  <cdk:Formula>
[]

>  <TD50_Rat_mmol>
0.0135

>  <net.bioclipse.cdk.fingerprint>
EAIAACAAAAgAAAABAAgAAAAAGEAAAAAAAAQABgAAAGAABAAAAAAAAAAAAAAAAAAEAgAAAEAEAAAAgAAAAAAAAAAAgAAAAAABAACAAAAAAAAAAAAAAEAAAAAQAAAgAAQAACAAAABAIAIAAAAAAAAAAIAAAABAAAAAAAIQAA==

$$$$

 OpenBabel04131118512D

 13 14  0  0  0  0  0  0  0  0999 V2000
    2.3040    0.0000    0.0000 O   0  0  0  0  0  0  0  0  0  0  0  0
    3.4536   -0.6656    0.0000 N   0  3  0  0  0  0  0  0  0  0  0  0
    3.4536   -1.9968    0.0000 C   0  0  0  0  0  0  0  0  0  0  0  0
    4.6080   -2.6577    0.0000 C   0  0  0  0  0  0  0  0  0  0  0  0
    4.6080   -3.9889    0.0000 C   0  0  0  0  0  0  0  0  0  0  0  0
    3.4536   -4.6545    0.0000 C   0  0  0  0  0  0  0  0  0  0  0  0
    2.3040   -3.9889    0.0000 C   0  0  0  0  0  0  0  0  0  0  0  0
    1.1497   -4.6545    0.0000 C   0  0  0  0  0  0  0  0  0  0  0  0
    0.0000   -3.9889    0.0000 C   0  0  0  0  0  0  0  0  0  0  0  0
    0.0000   -2.6577    0.0000 C   0  0  0  0  0  0  0  0  0  0  0  0
    1.1497   -1.9968    0.0000 N   0  0  0  0  0  0  0  0  0  0  0  0
    2.3040   -2.6577    0.0000 C   0  0  0  0  0  0  0  0  0  0  0  0
    4.6080    0.0000    0.0000 O   0  5  0  0  0  0  0  0  0  0  0  0
  1  2  2  0  0  0  0
  2  3  1  0  0  0  0
  2 13  1  0  0  0  0
  3  4  2  0  0  0  0
  3 12  1  0  0  0  0
  4  5  1  0  0  0  0
  5  6  2  0  0  0  0
  6  7  1  0  0  0  0
  7  8  2  0  0  0  0
  7 12  1  0  0  0  0
  8  9  1  0  0  0  0
  9 10  2  0  0  0  0
 10 11  1  0  0  0  0
 11 12  2  0  0  0  0
M  CHG  2   2   1  13  -1
M  END
>  <ActivityOutcome_CPDBAS_Rat>
active

>  <cdk:Formula>
[]

>  <TD50_Rat_mmol>
0.0564

>  <net.bioclipse.cdk.fingerprint>
AhGaAgAggAAMAgAAAQAJAEAAABhAAAAAAAAUCAYAAAFgAARgAAAAAAAAAAAIAEAAhAIAAABABAAAAJAAAAEAAAgAAIAAAAAACQAAgAAAgAgBwAAAAABAIAIAEAAAIEAEBQAgCIEAQCACgQAAIAAAAACAAAACQAAAAIACEEA=

$$$$

 OpenBabel04131118512D

 17 17  0  0  0  0  0  0  0  0999 V2000
    7.9835   -2.2992    0.0000 C   0  0  0  0  0  0  0  0  0  0  0  0
    7.3209   -1.1496    0.0000 C   0  0  0  0  0  0  0  0  0  0  0  0
    7.9835    0.0000    0.0000 C   0  0  0  0  0  0  0  0  0  0  0  0
    5.9876   -1.1496    0.0000 O   0  0  0  0  0  0  0  0  0  0  0  0
    5.3250   -2.2992    0.0000 C   0  0  0  0  0  0  0  0  0  0  0  0
    5.9876   -3.4569    0.0000 C   0  0  0  0  0  0  0  0  0  0  0  0
    5.3250   -4.6065    0.0000 C   0  0  0  0  0  0  0  0  0  0  0  0
    3.9917   -4.6065    0.0000 C   0  0  0  0  0  0  0  0  0  0  0  0
    3.3291   -3.4569    0.0000 C   0  0  0  0  0  0  0  0  0  0  0  0
    3.9917   -2.2992    0.0000 C   0  0  0  0  0  0  0  0  0  0  0  0
    3.3291   -1.1496    0.0000 O   0  0  0  0  0  0  0  0  0  0  0  0
    1.9959   -1.1496    0.0000 C   0  0  0  0  0  0  0  0  0  0  0  0
    1.3332    0.0000    0.0000 O   0  0  0  0  0  0  0  0  0  0  0  0
    1.3332   -2.2992    0.0000 N   0  0  0  0  0  0  0  0  0  0  0  0
    0.0000   -2.2992    0.0000 C   0  0  0  0  0  0  0  0  0  0  0  0
    1.9959   -3.4569    0.0000 N   0  0  0  0  0  0  0  0  0  0  0  0
    1.3332   -4.6065    0.0000 O   0  0  0  0  0  0  0  0  0  0  0  0
  1  2  1  0  0  0  0
  2  3  1  0  0  0  0
  2  4  1  0  0  0  0
  4  5  1  0  0  0  0
  5  6  2  0  0  0  0
  5 10  1  0  0  0  0
  6  7  1  0  0  0  0
  7  8  2  0  0  0  0
  8  9  1  0  0  0  0
  9 10  2  0  0  0  0
 10 11  1  0  0  0  0
 11 12  1  0  0  0  0
 12 13  2  0  0  0  0
 12 14  1  0  0  0  0
 14 15  1  0  0  0  0
 14 16  1  0  0  0  0
 16 17  2  0  0  0  0
M  END
>  <ActivityOutcome_CPDBAS_Rat>
active

>  <cdk:Formula>
[]

>  <TD50_Rat_mmol>
0.00153

>  <net.bioclipse.cdk.fingerprint>
AKAAAAABAAAAAAIAAgQQAAUAQAAACAAQAIAAMACgAAAEBAACeRCABhgAAAQIAAAAACACASAAgAAAQAAACMAAAAKABhIwAAAAAgAAAARAAACIAAIAAAAEEABAABEgAgAgACAARCAAICAhABBgAgEAAAAIAAAAgEAgBAAAiAAAIwAA

$$$$

 OpenBabel04131118512D

 17 16  0  0  0  0  0  0  0  0999 V2000
    5.1404   -3.6328    0.0000 N   0  0  0  0  0  0  0  0  0  0  0  0
    3.8108   -3.6328    0.0000 C   0  0  0  0  0  0  0  0  0  0  0  0
    3.1513   -2.4812    0.0000 C   0  0  0  0  0  0  0  0  0  0  0  0
    1.8217   -2.4812    0.0000 C   0  0  0  0  0  0  0  0  0  0  0  0
    1.1516   -3.6328    0.0000 C   0  0  0  0  0  0  0  0  0  0  0  0
    0.4921   -4.7845    0.0000 F   0  0  0  0  0  0  0  0  0  0  0  0
    0.0000   -2.9628    0.0000 F   0  0  0  0  0  0  0  0  0  0  0  0
    2.3032   -4.2924    0.0000 F   0  0  0  0  0  0  0  0  0  0  0  0
    5.8105   -2.4812    0.0000 C   0  0  0  0  0  0  0  0  0  0  0  0
    7.1401   -2.4812    0.0000 C   0  0  0  0  0  0  0  0  0  0  0  0
    7.8101   -1.3296    0.0000 C   0  0  0  0  0  0  0  0  0  0  0  0
    9.1397   -1.3296    0.0000 C   0  0  0  0  0  0  0  0  0  0  0  0
    9.1397    0.0000    0.0000 F   0  0  0  0  0  0  0  0  0  0  0  0
   10.4693   -1.3296    0.0000 F   0  0  0  0  0  0  0  0  0  0  0  0
    9.1397   -2.6592    0.0000 F   0  0  0  0  0  0  0  0  0  0  0  0
    5.8105   -4.7845    0.0000 N   0  0  0  0  0  0  0  0  0  0  0  0
    7.1401   -4.7845    0.0000 O   0  0  0  0  0  0  0  0  0  0  0  0
  1  2  1  0  0  0  0
  1  9  1  0  0  0  0
  1 16  1  0  0  0  0
  2  3  1  0  0  0  0
  3  4  1  0  0  0  0
  4  5  1  0  0  0  0
  5  6  1  0  0  0  0
  5  7  1  0  0  0  0
  5  8  1  0  0  0  0
  9 10  1  0  0  0  0
 10 11  1  0  0  0  0
 11 12  1  0  0  0  0
 12 13  1  0  0  0  0
 12 14  1  0  0  0  0
 12 15  1  0  0  0  0
 16 17  2  0  0  0  0
M  END
>  <ActivityOutcome_CPDBAS_Rat>
active

>  <cdk:Formula>
[]

>  <TD50_Rat_mmol>
0.00281

>  <net.bioclipse.cdk.fingerprint>
EAAAAAAAAgAAAAABgAABAAAAABAAAAAAAAAAAAAEMQACYAAEAAAgAAAACAAAECAAEQAAAIAAAABAAMAAAAAAAAAAAAAARAAAAAAAAACABAAAACAAQAAAAAAAAAAAAAAEBCAAAQAIAAAAAAAQAAAAAAAAAAAAAAgAAAAAEwgA

$$$$

 OpenBabel04131118512D

 10 10  0  0  0  0  0  0  0  0999 V2000
    5.9845   -3.4531    0.0000 O   0  0  0  0  0  0  0  0  0  0  0  0
    5.3203   -2.3040    0.0000 N   0  0  0  0  0  0  0  0  0  0  0  0
    3.9917   -2.3040    0.0000 N   0  0  0  0  0  0  0  0  0  0  0  0
    3.3274   -3.4531    0.0000 C   0  0  0  0  0  0  0  0  0  0  0  0
    1.9929   -3.4531    0.0000 C   0  0  0  0  0  0  0  0  0  0  0  0
    1.3286   -2.3040    0.0000 C   0  0  0  0  0  0  0  0  0  0  0  0
    0.0000   -2.3040    0.0000 O   0  0  0  0  0  0  0  0  0  0  0  0
    1.9929   -1.1490    0.0000 N   0  0  0  0  0  0  0  0  0  0  0  0
    3.3274   -1.1490    0.0000 C   0  0  0  0  0  0  0  0  0  0  0  0
    3.9917    0.0000    0.0000 O   0  0  0  0  0  0  0  0  0  0  0  0
  1  2  2  0  0  0  0
  2  3  1  0  0  0  0
  3  4  1  0  0  0  0
  3  9  1  0  0  0  0
  4  5  1  0  0  0  0
  5  6  1  0  0  0  0
  6  7  2  0  0  0  0
  6  8  1  0  0  0  0
  8  9  1  0  0  0  0
  9 10  2  0  0  0  0
M  END
>  <ActivityOutcome_CPDBAS_Rat>
active

>  <cdk:Formula>
[]

>  <TD50_Rat_mmol>
0.000687

>  <net.bioclipse.cdk.fingerprint>
MAAIEAAAAhAQSAABgAAAEAAAARACAAAAAAAAAAAEhQAgYAAAIoAAAAAAAAADQCIAQQACAAAAAAAAAsAAAAKAAAAAAUABAQAAAAAAAACAAACAACAAAACAAAAABAAAAAAARCgAAAAIAAAAAAAAAAEEQEAAAFAAAAAAAAAAAwAA

$$$$

 OpenBabel04131118512D

 12 11  0  0  0  0  0  0  0  0999 V2000
    3.3277   -1.1482    0.0000 N   0  0  0  0  0  0  0  0  0  0  0  0
    3.9859   -2.3038    0.0000 C   0  0  0  0  0  0  0  0  0  0  0  0
    5.3169   -2.3038    0.0000 C   0  0  0  0  0  0  0  0  0  0  0  0
    5.9825   -1.1482    0.0000 C   0  0  0  0  0  0  0  0  0  0  0  0
    7.3135   -1.1482    0.0000 O   0  0  0  0  0  0  0  0  0  0  0  0
    5.9825   -3.4520    0.0000 O   0  0  0  0  0  0  0  0  0  0  0  0
    1.9966   -1.1482    0.0000 C   0  0  0  0  0  0  0  0  0  0  0  0
    1.3311   -2.3038    0.0000 C   0  0  0  0  0  0  0  0  0  0  0  0
    1.9966   -3.4520    0.0000 O   0  0  0  0  0  0  0  0  0  0  0  0
    0.0000   -2.3038    0.0000 C   0  0  0  0  0  0  0  0  0  0  0  0
    3.9859    0.0000    0.0000 N   0  0  0  0  0  0  0  0  0  0  0  0
    5.3169    0.0000    0.0000 O   0  0  0  0  0  0  0  0  0  0  0  0
  1  2  1  0  0  0  0
  1  7  1  0  0  0  0
  1 11  1  0  0  0  0
  2  3  1  0  0  0  0
  3  4  1  0  0  0  0
  3  6  1  0  0  0  0
  4  5  1  0  0  0  0
  7  8  1  0  0  0  0
  8  9  1  0  0  0  0
  8 10  1  0  0  0  0
 11 12  2  0  0  0  0
M  END
>  <ActivityOutcome_CPDBAS_Rat>
active

>  <cdk:Formula>
[]

>  <TD50_Rat_mmol>
0.0003

>  <net.bioclipse.cdk.fingerprint>
EAAAAAAAAgAAAgAFgAAAEAIAABgAAAAAAAAAAAAEAQAAYAAEAAAAAAAAAAAAGCAAEQAAAAAAAAAAAMAAAAAAAAAAAAAAAAAAAAAAAACAAAAAaiAAAAAAABAAAAAAAAAABCAAAAAIAARAAAAAAAAAAAAAAABBAAAAAAAAAwAA

$$$$

 OpenBabel04131118512D

 12 11  0  0  0  0  0  0  0  0999 V2000
    3.3277   -1.1482    0.0000 N   0  0  0  0  0  0  0  0  0  0  0  0
    3.9859   -2.3038    0.0000 C   0  0  0  0  0  0  0  0  0  0  0  0
    5.3169   -2.3038    0.0000 C   0  0  0  0  0  0  0  0  0  0  0  0
    5.9825   -1.1482    0.0000 C   0  0  0  0  0  0  0  0  0  0  0  0
    7.3135   -1.1482    0.0000 O   0  0  0  0  0  0  0  0  0  0  0  0
    5.9825   -3.4520    0.0000 O   0  0  0  0  0  0  0  0  0  0  0  0
    1.9966   -1.1482    0.0000 C   0  0  0  0  0  0  0  0  0  0  0  0
    1.3311   -2.3038    0.0000 C   0  0  0  0  0  0  0  0  0  0  0  0
    1.9966   -3.4520    0.0000 C   0  0  0  0  0  0  0  0  0  0  0  0
    0.0000   -2.3038    0.0000 O   0  0  0  0  0  0  0  0  0  0  0  0
    3.9859    0.0000    0.0000 N   0  0  0  0  0  0  0  0  0  0  0  0
    5.3169    0.0000    0.0000 O   0  0  0  0  0  0  0  0  0  0  0  0
  1  2  1  0  0  0  0
  1  7  1  0  0  0  0
  1 11  1  0  0  0  0
  2  3  1  0  0  0  0
  3  4  1  0  0  0  0
  3  6  1  0  0  0  0
  4  5  1  0  0  0  0
  7  8  1  0  0  0  0
  8  9  1  0  0  0  0
  8 10  2  0  0  0  0
 11 12  2  0  0  0  0
M  END
>  <ActivityOutcome_CPDBAS_Rat>
active

>  <cdk:Formula>
[]

>  <TD50_Rat_mmol>
0.0002

>  <net.bioclipse.cdk.fingerprint>
EAAAAAAAAgAAAoABgAAAEQIAABgAAAAAAQAAAAAEAQAAYAAEAAAAAFAAAAAAGCAAEQAAAAAAAAAAAMAAAAAAAAAAAAAAAAAAAAAAAACAAAAAaiAAAAAAABAAAAAAAAAARCAAAAAIAAQAAAAAAACAAAIAABBBAAAAAAAAAwAA

$$$$

 OpenBabel04131118512D

 11 10  0  0  0  0  0  0  0  0999 V2000
    3.9901   -2.3031    0.0000 N   0  0  0  0  0  0  0  0  0  0  0  0
    3.3261   -1.1486    0.0000 C   0  0  0  0  0  0  0  0  0  0  0  0
    1.9921   -1.1486    0.0000 C   0  0  0  0  0  0  0  0  0  0  0  0
    1.3280   -2.3031    0.0000 C   0  0  0  0  0  0  0  0  0  0  0  0
    0.0000   -2.3031    0.0000 O   0  0  0  0  0  0  0  0  0  0  0  0
    1.3280    0.0000    0.0000 O   0  0  0  0  0  0  0  0  0  0  0  0
    5.3182   -2.3031    0.0000 C   0  0  0  0  0  0  0  0  0  0  0  0
    5.9822   -1.1486    0.0000 C   0  0  0  0  0  0  0  0  0  0  0  0
    5.3182    0.0000    0.0000 O   0  0  0  0  0  0  0  0  0  0  0  0
    3.3261   -3.4517    0.0000 N   0  0  0  0  0  0  0  0  0  0  0  0
    1.9921   -3.4517    0.0000 O   0  0  0  0  0  0  0  0  0  0  0  0
  1  2  1  0  0  0  0
  1  7  1  0  0  0  0
  1 10  1  0  0  0  0
  2  3  1  0  0  0  0
  3  4  1  0  0  0  0
  3  6  1  0  0  0  0
  4  5  1  0  0  0  0
  7  8  1  0  0  0  0
  8  9  1  0  0  0  0
 10 11  2  0  0  0  0
M  END
>  <ActivityOutcome_CPDBAS_Rat>
active

>  <cdk:Formula>
[]

>  <TD50_Rat_mmol>
0.0364

>  <net.bioclipse.cdk.fingerprint>
EAAAAAAAAgAAAgAFgAAAEAAAABgAAAAAAAAAAAAEAQAAYAAAAAAAAAAAAAAAGCAAEQAAAAAAAAAAAMAAAAAAAAAAAAAAAAAAAAAAAACAAAAAaiAAAAAAABAAAAAAAAAABCAAAAAIAARAAAAAAAAAAAAAAABBAAAAAAAAAwAA

$$$$

 OpenBabel04131118512D

 18 19  0  0  0  0  0  0  0  0999 V2000
    6.9087   -3.3254    0.0000 N   0  0  0  0  0  0  0  0  0  0  0  0
    5.7572   -3.9886    0.0000 C   0  0  0  0  0  0  0  0  0  0  0  0
    4.6058   -3.3254    0.0000 C   0  0  0  0  0  0  0  0  0  0  0  0
    4.6058   -1.9897    0.0000 N   0  0  0  0  0  0  0  0  0  0  0  0
    5.7572   -1.3265    0.0000 C   0  0  0  0  0  0  0  0  0  0  0  0
    6.9087   -1.9897    0.0000 C   0  0  0  0  0  0  0  0  0  0  0  0
    5.7572    0.0000    0.0000 C   0  0  0  0  0  0  0  0  0  0  0  0
    3.4543   -1.3265    0.0000 C   0  0  0  0  0  0  0  0  0  0  0  0
    2.3029   -1.9897    0.0000 C   0  0  0  0  0  0  0  0  0  0  0  0
    2.3029   -3.3254    0.0000 C   0  0  0  0  0  0  0  0  0  0  0  0
    1.1514   -3.9886    0.0000 C   0  0  0  0  0  0  0  0  0  0  0  0
    0.0000   -3.3254    0.0000 C   0  0  0  0  0  0  0  0  0  0  0  0
    0.0000   -1.9897    0.0000 C   0  0  0  0  0  0  0  0  0  0  0  0
    1.1514   -1.3265    0.0000 C   0  0  0  0  0  0  0  0  0  0  0  0
    3.4543    0.0000    0.0000 O   0  0  0  0  0  0  0  0  0  0  0  0
    3.4543   -3.9886    0.0000 C   0  0  0  0  0  0  0  0  0  0  0  0
    8.0601   -3.9886    0.0000 N   0  0  0  0  0  0  0  0  0  0  0  0
    9.2116   -3.3254    0.0000 O   0  0  0  0  0  0  0  0  0  0  0  0
  1  2  1  0  0  0  0
  1  6  1  0  0  0  0
  1 17  1  0  0  0  0
  2  3  1  0  0  0  0
  3  4  1  0  0  0  0
  3 16  1  0  0  0  0
  4  5  1  0  0  0  0
  4  8  1  0  0  0  0
  5  6  1  0  0  0  0
  5  7  1  0  0  0  0
  8  9  1  0  0  0  0
  8 15  2  0  0  0  0
  9 10  1  0  0  0  0
  9 14  2  0  0  0  0
 10 11  2  0  0  0  0
 11 12  1  0  0  0  0
 12 13  2  0  0  0  0
 13 14  1  0  0  0  0
 17 18  2  0  0  0  0
M  END
>  <ActivityOutcome_CPDBAS_Rat>
active

>  <cdk:Formula>
[]

>  <TD50_Rat_mmol>
0.0391

>  <net.bioclipse.cdk.fingerprint>
EAAAAABAQhCAAAABmAAAIAAAABgCCAAAAAAAAACkARABaAAEBBQCAAAQAAABACAAERQAQAAAQAAAAMAAACCAhCAAAACAgEAAQAAAAACAAgAAACAAAAABgABAAACIBCAARCBAIAQMEAAgAkAAAABAAAJEgFIIQAAAAAAgAwAA

$$$$

 OpenBabel04131118512D

 12 11  0  0  0  0  0  0  0  0999 V2000
    3.9895   -4.6118    0.0000 O   0  0  0  0  0  0  0  0  0  0  0  0
    2.6620   -4.6118    0.0000 C   0  0  0  0  0  0  0  0  0  0  0  0
    1.9982   -5.7596    0.0000 N   0  0  0  0  0  0  0  0  0  0  0  0
    2.6620   -6.9143    0.0000 C   0  0  0  0  0  0  0  0  0  0  0  0
    3.9895   -6.9143    0.0000 C   0  0  0  0  0  0  0  0  0  0  0  0
    4.6602   -5.7596    0.0000 O   0  0  0  0  0  0  0  0  0  0  0  0
    0.6638   -5.7596    0.0000 N   0  0  0  0  0  0  0  0  0  0  0  0
    0.0000   -4.6118    0.0000 O   0  0  0  0  0  0  0  0  0  0  0  0
    1.9982   -3.4571    0.0000 N   0  0  0  0  0  0  0  0  0  0  0  0
    2.6620   -2.3025    0.0000 C   0  0  0  0  0  0  0  0  0  0  0  0
    1.9982   -1.1547    0.0000 C   0  0  0  0  0  0  0  0  0  0  0  0
    2.6620    0.0000    0.0000 Cl  0  0  0  0  0  0  0  0  0  0  0  0
  1  2  2  0  0  0  0
  2  3  1  0  0  0  0
  2  9  1  0  0  0  0
  3  4  1  0  0  0  0
  3  7  1  0  0  0  0
  4  5  1  0  0  0  0
  5  6  1  0  0  0  0
  7  8  2  0  0  0  0
  9 10  1  0  0  0  0
 10 11  1  0  0  0  0
 11 12  1  0  0  0  0
M  END
>  <ActivityOutcome_CPDBAS_Rat>
active

>  <cdk:Formula>
[]

>  <TD50_Rat_mmol>
0.00182

>  <net.bioclipse.cdk.fingerprint>
CAAAAAIQAEoAAIAAAAALAAAIAAABAAACAAAABAUAIOAAAALAAAAAAAAAAQggAAEAAiAAIAAAAACAAAADgAAACAAAAAEQAAAAAAAAgAAAAGAAAAAAAAAQAAAAAAEAAEQgAAAAAAAAAAAAAAAAAABAAABABAAAgAAAAAMAAA==

$$$$

 OpenBabel04131118512D

 13 12  0  0  0  0  0  0  0  0999 V2000
    3.3259   -3.4535    0.0000 O   0  0  0  0  0  0  0  0  0  0  0  0
    3.9879   -2.2970    0.0000 C   0  0  0  0  0  0  0  0  0  0  0  0
    3.3259   -1.1485    0.0000 N   0  0  0  0  0  0  0  0  0  0  0  0
    1.9939   -1.1485    0.0000 C   0  0  0  0  0  0  0  0  0  0  0  0
    1.3320   -2.2970    0.0000 C   0  0  0  0  0  0  0  0  0  0  0  0
    1.9939   -3.4535    0.0000 C   0  0  0  0  0  0  0  0  0  0  0  0
    0.0000   -2.2970    0.0000 O   0  0  0  0  0  0  0  0  0  0  0  0
    3.9879    0.0000    0.0000 N   0  0  0  0  0  0  0  0  0  0  0  0
    5.3199    0.0000    0.0000 O   0  0  0  0  0  0  0  0  0  0  0  0
    5.3199   -2.2970    0.0000 N   0  0  0  0  0  0  0  0  0  0  0  0
    5.9818   -3.4535    0.0000 C   0  0  0  0  0  0  0  0  0  0  0  0
    7.3138   -3.4535    0.0000 C   0  0  0  0  0  0  0  0  0  0  0  0
    7.9758   -4.6020    0.0000 Cl  0  0  0  0  0  0  0  0  0  0  0  0
  1  2  2  0  0  0  0
  2  3  1  0  0  0  0
  2 10  1  0  0  0  0
  3  4  1  0  0  0  0
  3  8  1  0  0  0  0
  4  5  1  0  0  0  0
  5  6  1  0  0  0  0
  5  7  1  0  0  0  0
  8  9  2  0  0  0  0
 10 11  1  0  0  0  0
 11 12  1  0  0  0  0
 12 13  1  0  0  0  0
M  END
>  <ActivityOutcome_CPDBAS_Rat>
active

>  <cdk:Formula>
[]

>  <TD50_Rat_mmol>
0.00416

>  <net.bioclipse.cdk.fingerprint>
CAAAAAIQAEoAAYAAAAALAAAYAAABAAAiAAAABAUAIOAAAALAgAAAAAAAAQggAEEAAiAAIAAAAADAAAADgAAACAAAAAEQAAAAAAAAgAAAAGAgAAAAAAAQAAAAAAEAAEQgAAAACAAAAAAAAAAAAABAAABABAAAgAAACAMAAA==

$$$$

 OpenBabel04131118512D

 10  9  0  0  0  0  0  0  0  0999 V2000
    1.9973   -3.4592    0.0000 N   0  0  0  0  0  0  0  0  0  0  0  0
    2.6584   -2.3046    0.0000 C   0  0  0  0  0  0  0  0  0  0  0  0
    1.9973   -1.1546    0.0000 C   0  0  0  0  0  0  0  0  0  0  0  0
    0.6658   -1.1546    0.0000 C   0  0  0  0  0  0  0  0  0  0  0  0
    2.6584    0.0000    0.0000 O   0  0  0  0  0  0  0  0  0  0  0  0
    2.6584   -4.6091    0.0000 C   0  0  0  0  0  0  0  0  0  0  0  0
    3.9899   -4.6091    0.0000 C   0  0  0  0  0  0  0  0  0  0  0  0
    4.6557   -3.4592    0.0000 O   0  0  0  0  0  0  0  0  0  0  0  0
    0.6658   -3.4592    0.0000 N   0  0  0  0  0  0  0  0  0  0  0  0
    0.0000   -2.3046    0.0000 O   0  0  0  0  0  0  0  0  0  0  0  0
  1  2  1  0  0  0  0
  1  6  1  0  0  0  0
  1  9  1  0  0  0  0
  2  3  1  0  0  0  0
  3  4  1  0  0  0  0
  3  5  1  0  0  0  0
  6  7  1  0  0  0  0
  7  8  1  0  0  0  0
  9 10  2  0  0  0  0
M  END
>  <ActivityOutcome_CPDBAS_Rat>
active

>  <cdk:Formula>
[]

>  <TD50_Rat_mmol>
0.00688

>  <net.bioclipse.cdk.fingerprint>
EAAAAAAAAgAAAgABgAAAAAAAABgAAAAAAAAAAAAEAQAAYAAAAAAAAAAAAAAACCAAEQAAAAAAAAAAAMAAAAAAAAAAAAAAAAAAAAAAAACAAAAAYCAAAAAAABAAAAAAAAAABCAAAAAIAARAAAAAAAAAAAAAAAABAAAAAAAAAwAA

$$$$

 OpenBabel04131118512D

  8  8  0  0  0  0  0  0  0  0999 V2000
    1.3317   -1.0767    0.0000 C   0  0  0  0  0  0  0  0  0  0  0  0
    2.1137    0.0000    0.0000 C   0  0  0  0  0  0  0  0  0  0  0  0
    3.3774   -0.4080    0.0000 C   0  0  0  0  0  0  0  0  0  0  0  0
    3.3774   -1.7397    0.0000 N   0  0  0  0  0  0  0  0  0  0  0  0
    2.1137   -2.1534    0.0000 C   0  0  0  0  0  0  0  0  0  0  0  0
    4.4541   -2.5217    0.0000 N   0  0  0  0  0  0  0  0  0  0  0  0
    5.6668   -1.9834    0.0000 O   0  0  0  0  0  0  0  0  0  0  0  0
    0.0000   -1.0767    0.0000 O   0  0  0  0  0  0  0  0  0  0  0  0
  1  2  1  0  0  0  0
  1  5  1  0  0  0  0
  1  8  1  0  0  0  0
  2  3  1  0  0  0  0
  3  4  1  0  0  0  0
  4  5  1  0  0  0  0
  4  6  1  0  0  0  0
  6  7  2  0  0  0  0
M  END
>  <ActivityOutcome_CPDBAS_Rat>
active

>  <cdk:Formula>
[]

>  <TD50_Rat_mmol>
0.0659

>  <net.bioclipse.cdk.fingerprint>
EAAAAAAAAgAAAgABgAABEAAAABgAAAAAAAAAAAAEAQAAYAAAAAAAAAAAAAAAGCAAAQAAAAAAAAAAAMAAAAAAAAAAAAAAQAAAAAAAAACAAAAAaiAAAAAAABAAAAAAAAAABCAAAAAIAAAAAAAQAAAAAAAAAABBAAAAAAAAAwAA

$$$$

 OpenBabel04131118512D

 10  9  0  0  0  0  0  0  0  0999 V2000
    1.1521    0.0000    0.0000 O   0  0  0  0  0  0  0  0  0  0  0  0
    2.3042   -0.6682    0.0000 C   0  0  0  0  0  0  0  0  0  0  0  0
    2.3042   -1.9989    0.0000 N   0  0  0  0  0  0  0  0  0  0  0  0
    3.4563   -2.6614    0.0000 C   0  0  0  0  0  0  0  0  0  0  0  0
    4.6084   -1.9989    0.0000 C   0  0  0  0  0  0  0  0  0  0  0  0
    4.6084   -0.6682    0.0000 C   0  0  0  0  0  0  0  0  0  0  0  0
    5.7605   -2.6614    0.0000 C   0  0  0  0  0  0  0  0  0  0  0  0
    1.1521   -2.6614    0.0000 N   0  0  0  0  0  0  0  0  0  0  0  0
    0.0000   -1.9989    0.0000 O   0  0  0  0  0  0  0  0  0  0  0  0
    3.4563    0.0000    0.0000 N   0  0  0  0  0  0  0  0  0  0  0  0
  1  2  2  0  0  0  0
  2  3  1  0  0  0  0
  2 10  1  0  0  0  0
  3  4  1  0  0  0  0
  3  8  1  0  0  0  0
  4  5  1  0  0  0  0
  5  6  1  0  0  0  0
  5  7  1  0  0  0  0
  8  9  2  0  0  0  0
M  END
>  <ActivityOutcome_CPDBAS_Rat>
active

>  <cdk:Formula>
[]

>  <TD50_Rat_mmol>
0.0326

>  <net.bioclipse.cdk.fingerprint>
AhAASAABgAAAAAAAABAAAAAAAAAAAAAEBQAAYAAAAoAAAAAAAAABACAAQQACAAAAAAAAAMAAAAKAAAAAAAAAAAAAAAAAAACAAAAAACAAAAAAAAAAAAAAAAAARCAAAAAIAAAAAAAAAAAAAAAAAEAAAAAAAAAAAwAA

$$$$

 OpenBabel04131118512D

 16 15  0  0  0  0  0  0  0  0999 V2000
    0.0000   -1.3396    0.0000 O   0  0  0  0  0  0  0  0  0  0  0  0
    1.1460   -2.0014    0.0000 N   0  0  0  0  0  0  0  0  0  0  0  0
    2.3081   -1.3396    0.0000 N   0  0  0  0  0  0  0  0  0  0  0  0
    2.3081    0.0000    0.0000 C   0  0  0  0  0  0  0  0  0  0  0  0
    3.4540   -2.0014    0.0000 C   0  0  0  0  0  0  0  0  0  0  0  0
    4.6161   -1.3396    0.0000 C   0  0  0  0  0  0  0  0  0  0  0  0
    5.7621   -2.0014    0.0000 C   0  0  0  0  0  0  0  0  0  0  0  0
    6.9242   -1.3396    0.0000 C   0  0  0  0  0  0  0  0  0  0  0  0
    8.0702   -2.0014    0.0000 C   0  0  0  0  0  0  0  0  0  0  0  0
    9.2161   -1.3396    0.0000 C   0  0  0  0  0  0  0  0  0  0  0  0
   10.3782   -2.0014    0.0000 C   0  0  0  0  0  0  0  0  0  0  0  0
   11.5242   -1.3396    0.0000 C   0  0  0  0  0  0  0  0  0  0  0  0
   12.6863   -2.0014    0.0000 C   0  0  0  0  0  0  0  0  0  0  0  0
   13.8323   -1.3396    0.0000 C   0  0  0  0  0  0  0  0  0  0  0  0
   14.9944   -2.0014    0.0000 C   0  0  0  0  0  0  0  0  0  0  0  0
   16.1403   -1.3396    0.0000 C   0  0  0  0  0  0  0  0  0  0  0  0
  1  2  2  0  0  0  0
  2  3  1  0  0  0  0
  3  4  1  0  0  0  0
  3  5  1  0  0  0  0
  5  6  1  0  0  0  0
  6  7  1  0  0  0  0
  7  8  1  0  0  0  0
  8  9  1  0  0  0  0
  9 10  1  0  0  0  0
 10 11  1  0  0  0  0
 11 12  1  0  0  0  0
 12 13  1  0  0  0  0
 13 14  1  0  0  0  0
 14 15  1  0  0  0  0
 15 16  1  0  0  0  0
M  END
>  <ActivityOutcome_CPDBAS_Rat>
active

>  <cdk:Formula>
[]

>  <TD50_Rat_mmol>
0.00235

>  <net.bioclipse.cdk.fingerprint>
AgAAAAABhAABAAAAABAAAEAAAAAAAAAEAQEAYAAAAAAAAAAAAAAAECAAAQAAAAAAAAAAAMAAAAAAAAAAAAAAQAAAAAAAAAGAAAAEACAAQAAAAAAAAAEAAABABCAAAUAIACAIIAAQAAAAAAAAAQAAAAgABAAACwAA

$$$$

 OpenBabel04131118512D

 11 11  0  0  0  0  0  0  0  0999 V2000
    3.9859    0.0000    0.0000 C   0  0  0  0  0  0  0  0  0  0  0  0
    5.3169    0.0000    0.0000 C   0  0  0  0  0  0  0  0  0  0  0  0
    5.9825   -1.1555    0.0000 C   0  0  0  0  0  0  0  0  0  0  0  0
    5.3169   -2.3038    0.0000 C   0  0  0  0  0  0  0  0  0  0  0  0
    3.9859   -2.3038    0.0000 C   0  0  0  0  0  0  0  0  0  0  0  0
    3.3277   -1.1555    0.0000 C   0  0  0  0  0  0  0  0  0  0  0  0
    1.9966   -1.1555    0.0000 N   0  0  0  0  0  0  0  0  0  0  0  0
    1.3311   -2.3038    0.0000 N   0  0  0  0  0  0  0  0  0  0  0  0
    0.0000   -2.3038    0.0000 O   0  0  0  0  0  0  0  0  0  0  0  0
    1.3311    0.0000    0.0000 C   0  0  0  0  0  0  0  0  0  0  0  0
    7.3135   -1.1555    0.0000 F   0  0  0  0  0  0  0  0  0  0  0  0
  1  2  2  0  0  0  0
  1  6  1  0  0  0  0
  2  3  1  0  0  0  0
  3  4  2  0  0  0  0
  3 11  1  0  0  0  0
  4  5  1  0  0  0  0
  5  6  2  0  0  0  0
  6  7  1  0  0  0  0
  7  8  1  0  0  0  0
  7 10  1  0  0  0  0
  8  9  2  0  0  0  0
M  END
>  <ActivityOutcome_CPDBAS_Rat>
active

>  <cdk:Formula>
[]

>  <TD50_Rat_mmol>
0.00165

>  <net.bioclipse.cdk.fingerprint>
CQAAAAAgAAgAAAAAAEAAAIAAAABBAAAAAAAESAYgAABgEAgBACAAAEAAAAAAAIAFAAAAAgBAAAAAgAQAAEAAAAAAAAAAAAAAAAAAAAAAAAAIIAAAAAAAAAAAAAAAIQAEIAAgAAAAAAACAAAAAAAAAACAAAAAAAAAJAADEAA=

$$$$

 OpenBabel04131118512D

 12 12  0  0  0  0  0  0  0  0999 V2000
    7.3106   -1.1480    0.0000 C   0  0  0  0  0  0  0  0  0  0  0  0
    7.9723   -2.3040    0.0000 C   0  0  0  0  0  0  0  0  0  0  0  0
    7.3106   -3.4520    0.0000 C   0  0  0  0  0  0  0  0  0  0  0  0
    5.9793   -3.4520    0.0000 C   0  0  0  0  0  0  0  0  0  0  0  0
    5.3175   -2.3040    0.0000 C   0  0  0  0  0  0  0  0  0  0  0  0
    5.9793   -1.1480    0.0000 C   0  0  0  0  0  0  0  0  0  0  0  0
    3.9862   -2.3040    0.0000 C   0  0  0  0  0  0  0  0  0  0  0  0
    3.3245   -1.1480    0.0000 C   0  0  0  0  0  0  0  0  0  0  0  0
    1.9931   -1.1480    0.0000 N   0  0  0  0  0  0  0  0  0  0  0  0
    1.3314    0.0000    0.0000 C   0  0  0  0  0  0  0  0  0  0  0  0
    1.3314   -2.3040    0.0000 N   0  0  0  0  0  0  0  0  0  0  0  0
    0.0000   -2.3040    0.0000 O   0  0  0  0  0  0  0  0  0  0  0  0
  1  2  2  0  0  0  0
  1  6  1  0  0  0  0
  2  3  1  0  0  0  0
  3  4  2  0  0  0  0
  4  5  1  0  0  0  0
  5  6  2  0  0  0  0
  5  7  1  0  0  0  0
  7  8  1  0  0  0  0
  8  9  1  0  0  0  0
  9 10  1  0  0  0  0
  9 11  1  0  0  0  0
 11 12  2  0  0  0  0
M  END
>  <ActivityOutcome_CPDBAS_Rat>
active

>  <cdk:Formula>
[]

>  <TD50_Rat_mmol>
0.0000608

>  <net.bioclipse.cdk.fingerprint>
AIICAAAQAAGAAAAAAAgAEAAAAQIAAAAABAQJAABgAAAIAAAAAAAAAgAAIAABAAAABABAAAAAwAAAAAAEDAAAAAAAAAACAAAAAIAAAAAAIAAAAACAAAAAAIAAMAAEIEAkAAgAAAACQAAEAAAAFACAAAAEAAAAAAIDAAA=

$$$$

 OpenBabel04131118512D

 18 17  0  0  0  0  0  0  0  0999 V2000
    2.3052   -1.3278    0.0000 N   0  0  0  0  0  0  0  0  0  0  0  0
    3.4670   -1.9917    0.0000 C   0  0  0  0  0  0  0  0  0  0  0  0
    4.6104   -1.3278    0.0000 C   0  0  0  0  0  0  0  0  0  0  0  0
    5.7538   -1.9917    0.0000 C   0  0  0  0  0  0  0  0  0  0  0  0
    6.9156   -1.3278    0.0000 C   0  0  0  0  0  0  0  0  0  0  0  0
    8.0774   -1.9917    0.0000 C   0  0  0  0  0  0  0  0  0  0  0  0
    9.2208   -1.3278    0.0000 C   0  0  0  0  0  0  0  0  0  0  0  0
   10.3642   -1.9917    0.0000 C   0  0  0  0  0  0  0  0  0  0  0  0
   11.5260   -1.3278    0.0000 C   0  0  0  0  0  0  0  0  0  0  0  0
   12.6878   -1.9917    0.0000 C   0  0  0  0  0  0  0  0  0  0  0  0
   13.8312   -1.3278    0.0000 C   0  0  0  0  0  0  0  0  0  0  0  0
   14.9746   -1.9917    0.0000 C   0  0  0  0  0  0  0  0  0  0  0  0
   16.1364   -1.3278    0.0000 C   0  0  0  0  0  0  0  0  0  0  0  0
   17.2798   -1.9917    0.0000 C   0  0  0  0  0  0  0  0  0  0  0  0
   18.4416   -1.3278    0.0000 C   0  0  0  0  0  0  0  0  0  0  0  0
    2.3052    0.0000    0.0000 C   0  0  0  0  0  0  0  0  0  0  0  0
    1.1434   -1.9917    0.0000 N   0  0  0  0  0  0  0  0  0  0  0  0
    0.0000   -1.3278    0.0000 O   0  0  0  0  0  0  0  0  0  0  0  0
  1  2  1  0  0  0  0
  1 16  1  0  0  0  0
  1 17  1  0  0  0  0
  2  3  1  0  0  0  0
  3  4  1  0  0  0  0
  4  5  1  0  0  0  0
  5  6  1  0  0  0  0
  6  7  1  0  0  0  0
  7  8  1  0  0  0  0
  8  9  1  0  0  0  0
  9 10  1  0  0  0  0
 10 11  1  0  0  0  0
 11 12  1  0  0  0  0
 12 13  1  0  0  0  0
 13 14  1  0  0  0  0
 14 15  1  0  0  0  0
 17 18  2  0  0  0  0
M  END
>  <ActivityOutcome_CPDBAS_Rat>
active

>  <cdk:Formula>
[]

>  <TD50_Rat_mmol>
0.00643

>  <net.bioclipse.cdk.fingerprint>
AgAAAAABhAABAAAAABAAAEAAAAAAAAAEAQEAYAAAAAAAAAAAAAAAECAAAQAAAAAAAAAAAMAAAAAAAAAAAAAAQAAAAAAAAAGAAAAEACAAQAAAAAAAAAEAAABABCAAAUAIACAIIAAQAAAAAAAAAQAAAAgABAAACwAA

$$$$

 OpenBabel04131118512D

 14 13  0  0  0  0  0  0  0  0999 V2000
    2.3099   -1.3278    0.0000 N   0  0  0  0  0  0  0  0  0  0  0  0
    3.4579   -1.9918    0.0000 C   0  0  0  0  0  0  0  0  0  0  0  0
    4.6059   -1.3278    0.0000 C   0  0  0  0  0  0  0  0  0  0  0  0
    5.7678   -1.9918    0.0000 C   0  0  0  0  0  0  0  0  0  0  0  0
    6.9158   -1.3278    0.0000 C   0  0  0  0  0  0  0  0  0  0  0  0
    8.0639   -1.9918    0.0000 C   0  0  0  0  0  0  0  0  0  0  0  0
    9.2257   -1.3278    0.0000 C   0  0  0  0  0  0  0  0  0  0  0  0
   10.3738   -1.9918    0.0000 C   0  0  0  0  0  0  0  0  0  0  0  0
   11.5218   -1.3278    0.0000 C   0  0  0  0  0  0  0  0  0  0  0  0
   12.6836   -1.9918    0.0000 C   0  0  0  0  0  0  0  0  0  0  0  0
   13.8317   -1.3278    0.0000 C   0  0  0  0  0  0  0  0  0  0  0  0
    2.3099    0.0000    0.0000 C   0  0  0  0  0  0  0  0  0  0  0  0
    1.1480   -1.9918    0.0000 N   0  0  0  0  0  0  0  0  0  0  0  0
    0.0000   -1.3278    0.0000 O   0  0  0  0  0  0  0  0  0  0  0  0
  1  2  1  0  0  0  0
  1 12  1  0  0  0  0
  1 13  1  0  0  0  0
  2  3  1  0  0  0  0
  3  4  1  0  0  0  0
  4  5  1  0  0  0  0
  5  6  1  0  0  0  0
  6  7  1  0  0  0  0
  7  8  1  0  0  0  0
  8  9  1  0  0  0  0
  9 10  1  0  0  0  0
 10 11  1  0  0  0  0
 13 14  2  0  0  0  0
M  END
>  <ActivityOutcome_CPDBAS_Rat>
active

>  <cdk:Formula>
[]

>  <TD50_Rat_mmol>
0.00629

>  <net.bioclipse.cdk.fingerprint>
AgAAAAABhAABAAAAABAAAEAAAAAAAAAEAQEAYAAAAAAAAAAAAAAAECAAAQAAAAAAAAAAAMAAAAAAAAAAAAAAQAAAAAAAAAGAAAAEACAAQAAAAAAAAAEAAABABCAAAUAIACAIIAAQAAAAAAAAAQAAAAgABAAACwAA

$$$$

 OpenBabel04131118512D

  7  6  0  0  0  0  0  0  0  0999 V2000
    1.3291    0.0000    0.0000 C   0  0  0  0  0  0  0  0  0  0  0  0
    1.9956   -1.1495    0.0000 N   0  0  0  0  0  0  0  0  0  0  0  0
    3.3247   -1.1495    0.0000 C   0  0  0  0  0  0  0  0  0  0  0  0
    3.9912   -2.3029    0.0000 O   0  0  0  0  0  0  0  0  0  0  0  0
    3.9912    0.0000    0.0000 N   0  0  0  0  0  0  0  0  0  0  0  0
    1.3291   -2.3029    0.0000 N   0  0  0  0  0  0  0  0  0  0  0  0
    0.0000   -2.3029    0.0000 O   0  0  0  0  0  0  0  0  0  0  0  0
  1  2  1  0  0  0  0
  2  3  1  0  0  0  0
  2  6  1  0  0  0  0
  3  4  2  0  0  0  0
  3  5  1  0  0  0  0
  6  7  2  0  0  0  0
M  END
>  <ActivityOutcome_CPDBAS_Rat>
active

>  <cdk:Formula>
[]

>  <TD50_Rat_mmol>
0.000899

>  <net.bioclipse.cdk.fingerprint>
EABIAAAAAAAAAAAAAAAAAAAAAAAAAAQEAABgAAACAAAAAAAAAAAAAAABAAAAAAAAAAAAgAAAAoAAAAAAAAAAAAAAAAAAAAAAAAAAAAAAAAAAAAAAAAAAAABEIAAAAAAAAAAAAAAAAAAAAAAAQAAAAAAAAAADAAA=

$$$$

 OpenBabel04131118512D

  8  8  0  0  0  0  0  0  0  0999 V2000
    2.7766   -3.4152    0.0000 C   0  0  0  0  0  0  0  0  0  0  0  0
    1.9966   -2.3401    0.0000 N   0  0  0  0  0  0  0  0  0  0  0  0
    2.7766   -1.2650    0.0000 C   0  0  0  0  0  0  0  0  0  0  0  0
    4.0417   -1.6732    0.0000 O   0  0  0  0  0  0  0  0  0  0  0  0
    4.0417   -3.0070    0.0000 C   0  0  0  0  0  0  0  0  0  0  0  0
    2.3644    0.0000    0.0000 O   0  0  0  0  0  0  0  0  0  0  0  0
    0.6669   -2.3401    0.0000 N   0  0  0  0  0  0  0  0  0  0  0  0
    0.0000   -3.4920    0.0000 O   0  0  0  0  0  0  0  0  0  0  0  0
  1  2  1  0  0  0  0
  1  5  1  0  0  0  0
  2  3  1  0  0  0  0
  2  7  1  0  0  0  0
  3  4  1  0  0  0  0
  3  6  2  0  0  0  0
  4  5  1  0  0  0  0
  7  8  2  0  0  0  0
M  END
>  <ActivityOutcome_CPDBAS_Rat>
active

>  <cdk:Formula>
[]

>  <TD50_Rat_mmol>
0.00332

>  <net.bioclipse.cdk.fingerprint>
CACAAAAAAgBAAgAAgAAAAAAAAAgAAIAAAACAAAAEBQIIYAAAAgABAAAAAAABSCACAQBAIAAAAAAAAMAAAAKAAAAAAQAAAAAAAAAAAACJAAAAYAAEAABAABEAAAAAAAQARCAAAAAAAABAAAAAAAAIAAAAAEAAAAAAAAAAAwAA

$$$$

 OpenBabel04131118512D

 10  9  0  0  0  0  0  0  0  0999 V2000
    1.9973   -3.4592    0.0000 N   0  0  0  0  0  0  0  0  0  0  0  0
    2.6584   -2.3046    0.0000 C   0  0  0  0  0  0  0  0  0  0  0  0
    1.9973   -1.1546    0.0000 C   0  0  0  0  0  0  0  0  0  0  0  0
    0.6658   -1.1546    0.0000 C   0  0  0  0  0  0  0  0  0  0  0  0
    2.6584    0.0000    0.0000 O   0  0  0  0  0  0  0  0  0  0  0  0
    2.6584   -4.6091    0.0000 C   0  0  0  0  0  0  0  0  0  0  0  0
    3.9899   -4.6091    0.0000 C   0  0  0  0  0  0  0  0  0  0  0  0
    4.6557   -3.4592    0.0000 O   0  0  0  0  0  0  0  0  0  0  0  0
    0.6658   -3.4592    0.0000 N   0  0  0  0  0  0  0  0  0  0  0  0
    0.0000   -2.3046    0.0000 O   0  0  0  0  0  0  0  0  0  0  0  0
  1  2  1  0  0  0  0
  1  6  1  0  0  0  0
  1  9  1  0  0  0  0
  2  3  1  0  0  0  0
  3  4  1  0  0  0  0
  3  5  2  0  0  0  0
  6  7  1  0  0  0  0
  7  8  1  0  0  0  0
  9 10  2  0  0  0  0
M  END
>  <ActivityOutcome_CPDBAS_Rat>
active

>  <cdk:Formula>
[]

>  <TD50_Rat_mmol>
0.0123

>  <net.bioclipse.cdk.fingerprint>
EAAAAAAAAgAAAoABgAAAAQAAABgAAAAAAQAAAAAEAQAAYAAAAAAAAEAAAAAACCAAEQAAAAAAAAAAAMAAAAAAAAAAAAAAAAAAAAAAAACAAAAAYCAAAAAAABAAAAAAAAAARCAAAAAIAAQAAAAAAACAAAAAABABAAAAAAAAAwAA

$$$$

 OpenBabel04131118512D

 10 10  0  0  0  0  0  0  0  0999 V2000
    2.3004   -0.6632    0.0000 C   0  0  0  0  0  0  0  0  0  0  0  0
    3.4540    0.0000    0.0000 C   0  0  0  0  0  0  0  0  0  0  0  0
    4.6077   -0.6632    0.0000 C   0  0  0  0  0  0  0  0  0  0  0  0
    4.6077   -1.9964    0.0000 N   0  0  0  0  0  0  0  0  0  0  0  0
    3.4540   -2.6596    0.0000 C   0  0  0  0  0  0  0  0  0  0  0  0
    2.3004   -1.9964    0.0000 N   0  0  0  0  0  0  0  0  0  0  0  0
    1.1537   -2.6596    0.0000 N   0  0  0  0  0  0  0  0  0  0  0  0
    0.0000   -1.9964    0.0000 O   0  0  0  0  0  0  0  0  0  0  0  0
    5.7544   -2.6596    0.0000 N   0  0  0  0  0  0  0  0  0  0  0  0
    6.9081   -1.9964    0.0000 O   0  0  0  0  0  0  0  0  0  0  0  0
  1  2  1  0  0  0  0
  1  6  1  0  0  0  0
  2  3  1  0  0  0  0
  3  4  1  0  0  0  0
  4  5  1  0  0  0  0
  4  9  1  0  0  0  0
  5  6  1  0  0  0  0
  6  7  1  0  0  0  0
  7  8  2  0  0  0  0
  9 10  2  0  0  0  0
M  END
>  <ActivityOutcome_CPDBAS_Rat>
active

>  <cdk:Formula>
[]

>  <TD50_Rat_mmol>
0.00115

>  <net.bioclipse.cdk.fingerprint>
CAAAAAIQAEgAAYAAABAAAAAQAAAAAAAAAAAABIUAIGAAAACACAAAAAAACkAiAEEAAkAAAAAAAADAAAAAAAAAAAEAAQEAAAAAAAAAgAAAAAAgAAAAAAAAAAAAAAAABBQoAAAACAAAAAAAAAAAAABAAAAAAAAAAAAAAAMAAA==

$$$$

 OpenBabel04131118512D

  8  8  0  0  0  0  0  0  0  0999 V2000
    0.0000    0.0000    0.0000 O   0  0  0  0  0  0  0  0  0  0  0  0
    0.6654   -1.1540    0.0000 N   0  0  0  0  0  0  0  0  0  0  0  0
    1.9962   -1.1540    0.0000 N   0  0  0  0  0  0  0  0  0  0  0  0
    2.6569    0.0000    0.0000 C   0  0  0  0  0  0  0  0  0  0  0  0
    3.9877    0.0000    0.0000 C   0  0  0  0  0  0  0  0  0  0  0  0
    4.6531   -1.1540    0.0000 C   0  0  0  0  0  0  0  0  0  0  0  0
    2.6569   -2.3033    0.0000 C   0  0  0  0  0  0  0  0  0  0  0  0
    3.9877   -2.3033    0.0000 C   0  0  0  0  0  0  0  0  0  0  0  0
  1  2  2  0  0  0  0
  2  3  1  0  0  0  0
  3  4  1  0  0  0  0
  3  7  1  0  0  0  0
  4  5  1  0  0  0  0
  5  6  2  0  0  0  0
  6  8  1  0  0  0  0
  7  8  1  0  0  0  0
M  END
>  <ActivityOutcome_CPDBAS_Rat>
active

>  <cdk:Formula>
[]

>  <TD50_Rat_mmol>
0.000536

>  <net.bioclipse.cdk.fingerprint>
QBAAAAAAAAIEAAAAAYBAAAAAAAAVAIAAAAIAIAAABAMAAGAAAAAAAAAABAAAAAggABEAAgAQAAAAAADAAABAAAAAAAQAAAAAAAAACAAAgAAAAAAgAAEAAAAAAAAAAACAAAQgAgEACAAAAAAABAAAAAAIAAAACAAAAAAAAAMAAA==

$$$$

 OpenBabel04131118512D

 10  9  0  0  0  0  0  0  0  0999 V2000
    2.3027   -3.3238    0.0000 N   0  0  0  0  0  0  0  0  0  0  0  0
    3.4567   -2.6590    0.0000 C   0  0  0  0  0  0  0  0  0  0  0  0
    3.4567   -1.3295    0.0000 C   0  0  0  0  0  0  0  0  0  0  0  0
    3.4567    0.0000    0.0000 F   0  0  0  0  0  0  0  0  0  0  0  0
    4.7862   -1.3295    0.0000 F   0  0  0  0  0  0  0  0  0  0  0  0
    2.1272   -1.3295    0.0000 F   0  0  0  0  0  0  0  0  0  0  0  0
    2.3027   -4.6533    0.0000 C   0  0  0  0  0  0  0  0  0  0  0  0
    3.4567   -5.3180    0.0000 C   0  0  0  0  0  0  0  0  0  0  0  0
    1.1487   -2.6590    0.0000 N   0  0  0  0  0  0  0  0  0  0  0  0
    0.0000   -3.3238    0.0000 O   0  0  0  0  0  0  0  0  0  0  0  0
  1  2  1  0  0  0  0
  1  7  1  0  0  0  0
  1  9  1  0  0  0  0
  2  3  1  0  0  0  0
  3  4  1  0  0  0  0
  3  5  1  0  0  0  0
  3  6  1  0  0  0  0
  7  8  1  0  0  0  0
  9 10  2  0  0  0  0
M  END
>  <ActivityOutcome_CPDBAS_Rat>
active

>  <cdk:Formula>
[]

>  <TD50_Rat_mmol>
0.0161

>  <net.bioclipse.cdk.fingerprint>
EAAAAAAAAgAAAAABgAAAAAAAABAAAAAAAAAAAAAEMQAAYAAAAAAgAAAAAAAAACAAAQCAAAAAAAAAAIAQAAAAAAAAAAAAAAAAAAAAAACAAAAAAAAAAAAAAAAAAAAAAAAABCAAAAAIAAAAAAAAAAAAAAAAAAAAAAAAAAAAAwAA

$$$$

 OpenBabel04131118512D

 11 11  0  0  0  0  0  0  0  0999 V2000
    3.3269   -3.4585    0.0000 C   0  0  0  0  0  0  0  0  0  0  0  0
    1.9925   -3.4585    0.0000 C   0  0  0  0  0  0  0  0  0  0  0  0
    1.3283   -2.3037    0.0000 N   0  0  0  0  0  0  0  0  0  0  0  0
    1.9925   -1.1548    0.0000 C   0  0  0  0  0  0  0  0  0  0  0  0
    3.3269   -1.1548    0.0000 C   0  0  0  0  0  0  0  0  0  0  0  0
    3.9910   -2.3037    0.0000 N   0  0  0  0  0  0  0  0  0  0  0  0
    5.3194   -2.3037    0.0000 N   0  0  0  0  0  0  0  0  0  0  0  0
    5.9835   -1.1548    0.0000 O   0  0  0  0  0  0  0  0  0  0  0  0
    1.3283    0.0000    0.0000 C   0  0  0  0  0  0  0  0  0  0  0  0
    0.0000   -2.3037    0.0000 C   0  0  0  0  0  0  0  0  0  0  0  0
    1.3283   -4.6073    0.0000 C   0  0  0  0  0  0  0  0  0  0  0  0
  1  2  1  0  0  0  0
  1  6  1  0  0  0  0
  2  3  1  0  0  0  0
  2 11  1  0  0  0  0
  3  4  1  0  0  0  0
  3 10  1  0  0  0  0
  4  5  1  0  0  0  0
  4  9  1  0  0  0  0
  5  6  1  0  0  0  0
  6  7  1  0  0  0  0
  7  8  2  0  0  0  0
M  END
>  <ActivityOutcome_CPDBAS_Rat>
active

>  <cdk:Formula>
[]

>  <TD50_Rat_mmol>
0.00096

>  <net.bioclipse.cdk.fingerprint>
EAAAAAAAAgAAAAABgAAAAAAAABgCAAAAAAAAAAAEAQABYAAEBAAAAAAAAAAAACAAERAAAAAAAAAAAMAAAAAAAAAAAACAAEAAAAAAAACAAAAAACAAAAAAAAAAAAAIAAAABCAAAAAMEAAgAAAAAAAAAAAAAAAAAAAAAAAgAwAA

$$$$

 OpenBabel04131118512D

 11 10  0  0  0  0  0  0  0  0999 V2000
    3.9901   -2.3031    0.0000 N   0  0  0  0  0  0  0  0  0  0  0  0
    3.3261   -1.1486    0.0000 C   0  0  0  0  0  0  0  0  0  0  0  0
    1.9921   -1.1486    0.0000 C   0  0  0  0  0  0  0  0  0  0  0  0
    1.3280   -2.3031    0.0000 C   0  0  0  0  0  0  0  0  0  0  0  0
    0.0000   -2.3031    0.0000 O   0  0  0  0  0  0  0  0  0  0  0  0
    1.3280    0.0000    0.0000 O   0  0  0  0  0  0  0  0  0  0  0  0
    5.3182   -2.3031    0.0000 C   0  0  0  0  0  0  0  0  0  0  0  0
    5.9822   -1.1486    0.0000 C   0  0  0  0  0  0  0  0  0  0  0  0
    5.3182    0.0000    0.0000 C   0  0  0  0  0  0  0  0  0  0  0  0
    3.3261   -3.4517    0.0000 N   0  0  0  0  0  0  0  0  0  0  0  0
    1.9921   -3.4517    0.0000 O   0  0  0  0  0  0  0  0  0  0  0  0
  1  2  1  0  0  0  0
  1  7  1  0  0  0  0
  1 10  1  0  0  0  0
  2  3  1  0  0  0  0
  3  4  1  0  0  0  0
  3  6  1  0  0  0  0
  4  5  1  0  0  0  0
  7  8  1  0  0  0  0
  8  9  2  0  0  0  0
 10 11  2  0  0  0  0
M  END
>  <ActivityOutcome_CPDBAS_Rat>
active

>  <cdk:Formula>
[]

>  <TD50_Rat_mmol>
0.00515

>  <net.bioclipse.cdk.fingerprint>
QBAAAAAAAAIAAAIAAYAAABAAAAAYAAABAAIAAAAABAMAAGAAAAAAAAAAAAAAABggABEAAAAQAAAAAADAAAAAAAAAAAAAAAAAAAAAAAAAgAAAAGogQAAAAAAQAAAAAAAAAAQgAAEACAAAAAAABAAEAAAIAAAAQQAAAAAAAAMAAA==

$$$$

 OpenBabel04131118512D

 10  9  0  0  0  0  0  0  0  0999 V2000
    1.9973   -3.4592    0.0000 N   0  0  0  0  0  0  0  0  0  0  0  0
    2.6584   -2.3046    0.0000 C   0  0  0  0  0  0  0  0  0  0  0  0
    1.9973   -1.1546    0.0000 C   0  0  0  0  0  0  0  0  0  0  0  0
    0.6658   -1.1546    0.0000 C   0  0  0  0  0  0  0  0  0  0  0  0
    2.6584    0.0000    0.0000 O   0  0  0  0  0  0  0  0  0  0  0  0
    2.6584   -4.6091    0.0000 C   0  0  0  0  0  0  0  0  0  0  0  0
    3.9899   -4.6091    0.0000 C   0  0  0  0  0  0  0  0  0  0  0  0
    4.6557   -3.4592    0.0000 C   0  0  0  0  0  0  0  0  0  0  0  0
    0.6658   -3.4592    0.0000 N   0  0  0  0  0  0  0  0  0  0  0  0
    0.0000   -2.3046    0.0000 O   0  0  0  0  0  0  0  0  0  0  0  0
  1  2  1  0  0  0  0
  1  6  1  0  0  0  0
  1  9  1  0  0  0  0
  2  3  1  0  0  0  0
  3  4  1  0  0  0  0
  3  5  1  0  0  0  0
  6  7  1  0  0  0  0
  7  8  2  0  0  0  0
  9 10  2  0  0  0  0
M  END
>  <ActivityOutcome_CPDBAS_Rat>
active

>  <cdk:Formula>
[]

>  <TD50_Rat_mmol>
0.00608

>  <net.bioclipse.cdk.fingerprint>
QBAAAAAAAAIAAAIAAYAAAAAAAAAYAAAAAAIAAAAABAMAAGAAAAAAAAAAAAAAAAggABEAAAAQAAAAAADAAAAAAAAAAAAAAAAAAAAAAAAAgAAAAGAgQAAAAAAQAAAAAAAAAAQgAAEACAAAAAAABAAEAAAIAAAAAQAAAAAAAAMAAA==

$$$$

 OpenBabel04131118512D

 10  9  0  0  0  0  0  0  0  0999 V2000
    1.9973   -3.4592    0.0000 N   0  0  0  0  0  0  0  0  0  0  0  0
    2.6584   -2.3046    0.0000 C   0  0  0  0  0  0  0  0  0  0  0  0
    1.9973   -1.1546    0.0000 C   0  0  0  0  0  0  0  0  0  0  0  0
    0.6658   -1.1546    0.0000 C   0  0  0  0  0  0  0  0  0  0  0  0
    2.6584    0.0000    0.0000 O   0  0  0  0  0  0  0  0  0  0  0  0
    2.6584   -4.6091    0.0000 C   0  0  0  0  0  0  0  0  0  0  0  0
    3.9899   -4.6091    0.0000 C   0  0  0  0  0  0  0  0  0  0  0  0
    4.6557   -3.4592    0.0000 C   0  0  0  0  0  0  0  0  0  0  0  0
    0.6658   -3.4592    0.0000 N   0  0  0  0  0  0  0  0  0  0  0  0
    0.0000   -2.3046    0.0000 O   0  0  0  0  0  0  0  0  0  0  0  0
  1  2  1  0  0  0  0
  1  6  1  0  0  0  0
  1  9  1  0  0  0  0
  2  3  1  0  0  0  0
  3  4  1  0  0  0  0
  3  5  2  0  0  0  0
  6  7  1  0  0  0  0
  7  8  2  0  0  0  0
  9 10  2  0  0  0  0
M  END
>  <ActivityOutcome_CPDBAS_Rat>
active

>  <cdk:Formula>
[]

>  <TD50_Rat_mmol>
0.00236

>  <net.bioclipse.cdk.fingerprint>
QBAAAAAAAAIAAAKAAYAAAAEAAAAQAAAAAAMAAAAABAMAAGAAAAAAAAAAAAAAAAQgABEAAAAQAAAAAADAAAAAAAAAAAAAAAAAAAAAAAAAgAAAAAAgQAAAAAAAAAAAAAAAAEQgAAEACAAAAAAABAAAgAAIAAAQAAAAAAAAAAMAAA==

$$$$

 OpenBabel04131118512D

  9  8  0  0  0  0  0  0  0  0999 V2000
    2.3040   -1.9953    0.0000 N   0  0  0  0  0  0  0  0  0  0  0  0
    2.3040   -0.6635    0.0000 C   0  0  0  0  0  0  0  0  0  0  0  0
    1.1520    0.0000    0.0000 C   0  0  0  0  0  0  0  0  0  0  0  0
    0.0000   -0.6635    0.0000 C   0  0  0  0  0  0  0  0  0  0  0  0
    3.4560   -2.6588    0.0000 C   0  0  0  0  0  0  0  0  0  0  0  0
    4.6080   -1.9953    0.0000 C   0  0  0  0  0  0  0  0  0  0  0  0
    4.6080   -0.6635    0.0000 O   0  0  0  0  0  0  0  0  0  0  0  0
    1.1520   -2.6588    0.0000 N   0  0  0  0  0  0  0  0  0  0  0  0
    0.0000   -1.9953    0.0000 O   0  0  0  0  0  0  0  0  0  0  0  0
  1  2  1  0  0  0  0
  1  5  1  0  0  0  0
  1  8  1  0  0  0  0
  2  3  1  0  0  0  0
  3  4  2  0  0  0  0
  5  6  1  0  0  0  0
  6  7  1  0  0  0  0
  8  9  2  0  0  0  0
M  END
>  <ActivityOutcome_CPDBAS_Rat>
active

>  <cdk:Formula>
[]

>  <TD50_Rat_mmol>
0.00377

>  <net.bioclipse.cdk.fingerprint>
QBAAAAAAAAIAAAIAAIAAAAAAAAAIAAAAAAIAAAAABAMAAGAAAAAAAAAAAAAAAAggAAEAAAAQAAAAAACAAAAAAAAAAAAAAAAAAAAAAAAAgAAAAGAAAAAAAAAQAAAAAAAAAAQgAAEAAAAAAAAABAAEAAAIAAAAAQAAAAAAAAMAAA==

$$$$

 OpenBabel04131118512D

 13 12  0  0  0  0  0  0  0  0999 V2000
    5.3150   -3.4534    0.0000 O   0  0  0  0  0  0  0  0  0  0  0  0
    5.9852   -2.2992    0.0000 C   0  0  0  0  0  0  0  0  0  0  0  0
    5.3150   -1.1542    0.0000 N   0  0  0  0  0  0  0  0  0  0  0  0
    3.9933   -1.1542    0.0000 C   0  0  0  0  0  0  0  0  0  0  0  0
    3.3231   -2.2992    0.0000 C   0  0  0  0  0  0  0  0  0  0  0  0
    1.9920   -2.2992    0.0000 C   0  0  0  0  0  0  0  0  0  0  0  0
    1.3311   -3.4534    0.0000 C   0  0  0  0  0  0  0  0  0  0  0  0
    0.0000   -3.4534    0.0000 C   0  0  0  0  0  0  0  0  0  0  0  0
    5.9852    0.0000    0.0000 N   0  0  0  0  0  0  0  0  0  0  0  0
    7.3163    0.0000    0.0000 O   0  0  0  0  0  0  0  0  0  0  0  0
    7.3163   -2.2992    0.0000 O   0  0  0  0  0  0  0  0  0  0  0  0
    7.9772   -3.4534    0.0000 C   0  0  0  0  0  0  0  0  0  0  0  0
    9.3083   -3.4534    0.0000 C   0  0  0  0  0  0  0  0  0  0  0  0
  1  2  2  0  0  0  0
  2  3  1  0  0  0  0
  2 11  1  0  0  0  0
  3  4  1  0  0  0  0
  3  9  1  0  0  0  0
  4  5  1  0  0  0  0
  5  6  1  0  0  0  0
  6  7  1  0  0  0  0
  7  8  1  0  0  0  0
  9 10  2  0  0  0  0
 11 12  1  0  0  0  0
 12 13  1  0  0  0  0
M  END
>  <ActivityOutcome_CPDBAS_Rat>
active

>  <cdk:Formula>
[]

>  <TD50_Rat_mmol>
0.00537

>  <net.bioclipse.cdk.fingerprint>
AgGEAAAEAgAAAgABgAABAAAAABAAAIAAAACAAAAEBQEIYAAAAgAAAAAAAAABUKECAQACAAAABAAAANAACgKAAAAAAQAAQAAAAAAAAACJAABAACAEQABAABEAAAAAAABARCAAAQAIAABAIAAQAAAIAAACAEAAAAAAAAAAAwAA

$$$$

 OpenBabel04131118512D

 14 15  0  0  0  0  0  0  0  0999 V2000
    2.3043   -1.3287    0.0000 N   0  0  0  0  0  0  0  0  0  0  0  0
    3.4534   -1.9931    0.0000 N   0  0  0  0  0  0  0  0  0  0  0  0
    4.6086   -1.3287    0.0000 C   0  0  0  0  0  0  0  0  0  0  0  0
    5.7577   -1.9931    0.0000 C   0  0  0  0  0  0  0  0  0  0  0  0
    5.7577   -3.3278    0.0000 C   0  0  0  0  0  0  0  0  0  0  0  0
    4.6086   -3.9921    0.0000 C   0  0  0  0  0  0  0  0  0  0  0  0
    3.4534   -3.3278    0.0000 C   0  0  0  0  0  0  0  0  0  0  0  0
    2.3043   -3.9921    0.0000 C   0  0  0  0  0  0  0  0  0  0  0  0
    2.3043   -5.3208    0.0000 C   0  0  0  0  0  0  0  0  0  0  0  0
    1.1492   -5.9852    0.0000 C   0  0  0  0  0  0  0  0  0  0  0  0
    0.0000   -5.3208    0.0000 C   0  0  0  0  0  0  0  0  0  0  0  0
    0.0000   -3.9921    0.0000 N   0  0  0  0  0  0  0  0  0  0  0  0
    1.1492   -3.3278    0.0000 C   0  0  0  0  0  0  0  0  0  0  0  0
    2.3043    0.0000    0.0000 O   0  0  0  0  0  0  0  0  0  0  0  0
  1  2  1  0  0  0  0
  1 14  2  0  0  0  0
  2  3  1  0  0  0  0
  2  7  1  0  0  0  0
  3  4  1  0  0  0  0
  4  5  1  0  0  0  0
  5  6  1  0  0  0  0
  6  7  1  0  0  0  0
  7  8  1  0  0  0  0
  8  9  2  0  0  0  0
  8 13  1  0  0  0  0
  9 10  1  0  0  0  0
 10 11  2  0  0  0  0
 11 12  1  0  0  0  0
 12 13  2  0  0  0  0
M  END
>  <ActivityOutcome_CPDBAS_Rat>
active

>  <cdk:Formula>
[]

>  <TD50_Rat_mmol>
0.0622

>  <net.bioclipse.cdk.fingerprint>
EAAQOiCQAgACEIAcAAGAAAEgAhAgEACEQgAAIAQACDSBIQBggCARkBCAAQgAACQZIgAZBEACAABAAEAAwAAAIAECAAAAAABAIAGgAEJAAIAAgAAAICBAABmCMAAAAYAAIEDEIAIxIggAiAgASBAEIEgQHgCAAAAkAIwAAgALsCA=

$$$$

 OpenBabel04131118512D

 16 17  0  0  0  0  0  0  0  0999 V2000
    5.6781   -3.6371    0.0000 O   0  0  0  0  0  0  0  0  0  0  0  0
    6.3455   -2.4860    0.0000 C   0  0  0  0  0  0  0  0  0  0  0  0
    7.6804   -2.4860    0.0000 N   0  0  0  0  0  0  0  0  0  0  0  0
    8.3382   -3.6371    0.0000 C   0  0  0  0  0  0  0  0  0  0  0  0
    8.3382   -1.3349    0.0000 N   0  0  0  0  0  0  0  0  0  0  0  0
    9.6730   -1.3349    0.0000 O   0  0  0  0  0  0  0  0  0  0  0  0
    5.6781   -1.3349    0.0000 N   0  0  0  0  0  0  0  0  0  0  0  0
    4.3529   -1.3349    0.0000 C   0  0  0  0  0  0  0  0  0  0  0  0
    3.5694   -0.2612    0.0000 N   0  0  0  0  0  0  0  0  0  0  0  0
    2.3022   -0.6674    0.0000 C   0  0  0  0  0  0  0  0  0  0  0  0
    2.3022   -2.0023    0.0000 C   0  0  0  0  0  0  0  0  0  0  0  0
    3.5694   -2.4086    0.0000 S   0  0  0  0  0  0  0  0  0  0  0  0
    1.1511   -2.6601    0.0000 C   0  0  0  0  0  0  0  0  0  0  0  0
    0.0000   -2.0023    0.0000 C   0  0  0  0  0  0  0  0  0  0  0  0
    0.0000   -0.6674    0.0000 C   0  0  0  0  0  0  0  0  0  0  0  0
    1.1511    0.0000    0.0000 C   0  0  0  0  0  0  0  0  0  0  0  0
  1  2  2  0  0  0  0
  2  3  1  0  0  0  0
  2  7  1  0  0  0  0
  3  4  1  0  0  0  0
  3  5  1  0  0  0  0
  5  6  2  0  0  0  0
  7  8  1  0  0  0  0
  8  9  2  0  0  0  0
  8 12  1  0  0  0  0
  9 10  1  0  0  0  0
 10 11  2  0  0  0  0
 10 16  1  0  0  0  0
 11 12  1  0  0  0  0
 11 13  1  0  0  0  0
 13 14  2  0  0  0  0
 14 15  1  0  0  0  0
 15 16  2  0  0  0  0
M  END
>  <ActivityOutcome_CPDBAS_Rat>
active

>  <cdk:Formula>
[]

>  <TD50_Rat_mmol>
0.00478

>  <net.bioclipse.cdk.fingerprint>
AIACAoDwCgbAMApMhAAoQAEAACAEAQAgAAAAAEQASAQFIAFgACEiBAgAoIBSAEAAIBBNAAIgggHAhoAAgAEAApFQAkAIAIABAAAgBAAEDkAICAEQgSEAABADICAwAAEAIEJUIAAgCAiBIJQCAACCAgpBQELgTAAACAAAADADAAQ=

$$$$

 OpenBabel04131118512D

 11 10  0  0  0  0  0  0  0  0999 V2000
    5.3206    0.0000    0.0000 O   0  0  0  0  0  0  0  0  0  0  0  0
    3.9919    0.0000    0.0000 N   0  0  0  0  0  0  0  0  0  0  0  0
    3.3276   -1.1491    0.0000 N   0  0  0  0  0  0  0  0  0  0  0  0
    3.9919   -2.3042    0.0000 C   0  0  0  0  0  0  0  0  0  0  0  0
    5.3206   -2.3042    0.0000 C   0  0  0  0  0  0  0  0  0  0  0  0
    5.9849   -1.1491    0.0000 C   0  0  0  0  0  0  0  0  0  0  0  0
    5.9849   -3.4533    0.0000 O   0  0  0  0  0  0  0  0  0  0  0  0
    1.9930   -1.1491    0.0000 C   0  0  0  0  0  0  0  0  0  0  0  0
    1.3286   -2.3042    0.0000 C   0  0  0  0  0  0  0  0  0  0  0  0
    1.9930   -3.4533    0.0000 C   0  0  0  0  0  0  0  0  0  0  0  0
    0.0000   -2.3042    0.0000 O   0  0  0  0  0  0  0  0  0  0  0  0
  1  2  2  0  0  0  0
  2  3  1  0  0  0  0
  3  4  1  0  0  0  0
  3  8  1  0  0  0  0
  4  5  1  0  0  0  0
  5  6  1  0  0  0  0
  5  7  1  0  0  0  0
  8  9  1  0  0  0  0
  9 10  1  0  0  0  0
  9 11  1  0  0  0  0
M  END
>  <ActivityOutcome_CPDBAS_Rat>
active

>  <cdk:Formula>
[]

>  <TD50_Rat_mmol>
0.00522

>  <net.bioclipse.cdk.fingerprint>
EAAAAAAAAgAAAgABgAAAAAAAABgAAAAAAAAAAAAEAQAAYAAEAAAAAAAAAAAACCAAEQAAAAAAAAAAAMAAAAAAAAAAAAAAAAAAAAAAAACAAAAAYCAAAAAAABAAAAAAAAAABCAAAAAIAARAAAAAAAAAAAAAAAABAAAAAAAAAwAA

$$$$

 OpenBabel04131118512D

 11 10  0  0  0  0  0  0  0  0999 V2000
    5.3206    0.0000    0.0000 O   0  0  0  0  0  0  0  0  0  0  0  0
    3.9919    0.0000    0.0000 N   0  0  0  0  0  0  0  0  0  0  0  0
    3.3276   -1.1491    0.0000 N   0  0  0  0  0  0  0  0  0  0  0  0
    3.9919   -2.3042    0.0000 C   0  0  0  0  0  0  0  0  0  0  0  0
    5.3206   -2.3042    0.0000 C   0  0  0  0  0  0  0  0  0  0  0  0
    5.9849   -1.1491    0.0000 O   0  0  0  0  0  0  0  0  0  0  0  0
    5.9849   -3.4533    0.0000 C   0  0  0  0  0  0  0  0  0  0  0  0
    1.9930   -1.1491    0.0000 C   0  0  0  0  0  0  0  0  0  0  0  0
    1.3286   -2.3042    0.0000 C   0  0  0  0  0  0  0  0  0  0  0  0
    1.9930   -3.4533    0.0000 O   0  0  0  0  0  0  0  0  0  0  0  0
    0.0000   -2.3042    0.0000 C   0  0  0  0  0  0  0  0  0  0  0  0
  1  2  2  0  0  0  0
  2  3  1  0  0  0  0
  3  4  1  0  0  0  0
  3  8  1  0  0  0  0
  4  5  1  0  0  0  0
  5  6  2  0  0  0  0
  5  7  1  0  0  0  0
  8  9  1  0  0  0  0
  9 10  2  0  0  0  0
  9 11  1  0  0  0  0
M  END
>  <ActivityOutcome_CPDBAS_Rat>
active

>  <cdk:Formula>
[]

>  <TD50_Rat_mmol>
0.0031

>  <net.bioclipse.cdk.fingerprint>
EAAAAAAAAgAAAoABgAAAAQAAABAAAAAAAQAAAAAEAQAAYAAEAAAAABAAAAAAAGAAEQAAAAAAAAAAAMAAAAAAAAAAAAAAAAAAAAAAAACAAAAAACAAAAAAAAAAAAAAAAAARCAAAAAIAAAAAAAAAACAAAAAABAAAAAAAAAAAwAA

$$$$

 OpenBabel04131118512D

 11 10  0  0  0  0  0  0  0  0999 V2000
    5.7570   -0.6635    0.0000 O   0  0  0  0  0  0  0  0  0  0  0  0
    4.6098    0.0000    0.0000 N   0  0  0  0  0  0  0  0  0  0  0  0
    3.4556   -0.6635    0.0000 N   0  0  0  0  0  0  0  0  0  0  0  0
    3.4556   -1.9973    0.0000 C   0  0  0  0  0  0  0  0  0  0  0  0
    4.6098   -2.6608    0.0000 C   0  0  0  0  0  0  0  0  0  0  0  0
    5.7570   -1.9973    0.0000 C   0  0  0  0  0  0  0  0  0  0  0  0
    6.9112   -2.6608    0.0000 C   0  0  0  0  0  0  0  0  0  0  0  0
    2.3014    0.0000    0.0000 C   0  0  0  0  0  0  0  0  0  0  0  0
    1.1542   -0.6635    0.0000 C   0  0  0  0  0  0  0  0  0  0  0  0
    1.1542   -1.9973    0.0000 C   0  0  0  0  0  0  0  0  0  0  0  0
    0.0000   -2.6608    0.0000 C   0  0  0  0  0  0  0  0  0  0  0  0
  1  2  2  0  0  0  0
  2  3  1  0  0  0  0
  3  4  1  0  0  0  0
  3  8  1  0  0  0  0
  4  5  1  0  0  0  0
  5  6  1  0  0  0  0
  6  7  1  0  0  0  0
  8  9  1  0  0  0  0
  9 10  1  0  0  0  0
 10 11  1  0  0  0  0
M  END
>  <ActivityOutcome_CPDBAS_Rat>
active

>  <cdk:Formula>
[]

>  <TD50_Rat_mmol>
0.00437

>  <net.bioclipse.cdk.fingerprint>
EAAAAAAAAgAAAAABgAABAAAAABAAAAAAAAAAAAAEAQAAYAAEAAAAAAAACAAAECAAEQAAAAAAAABAAMAAAAAAAAAAAAAAQAAAAAAAAACAAAAAACAAQAAAAAAAAAAAAAAABCAAAAAIAAAAAAAQAAAAAAAAAAAAAAAAAAAAAwgA

$$$$

 OpenBabel04131118512D

  9  8  0  0  0  0  0  0  0  0999 V2000
    0.0000   -1.9953    0.0000 O   0  0  0  0  0  0  0  0  0  0  0  0
    1.1520   -2.6588    0.0000 N   0  0  0  0  0  0  0  0  0  0  0  0
    2.3040   -1.9953    0.0000 N   0  0  0  0  0  0  0  0  0  0  0  0
    2.3040   -0.6635    0.0000 C   0  0  0  0  0  0  0  0  0  0  0  0
    1.1520    0.0000    0.0000 C   0  0  0  0  0  0  0  0  0  0  0  0
    0.0000   -0.6635    0.0000 O   0  0  0  0  0  0  0  0  0  0  0  0
    3.4560   -2.6588    0.0000 C   0  0  0  0  0  0  0  0  0  0  0  0
    4.6080   -1.9953    0.0000 C   0  0  0  0  0  0  0  0  0  0  0  0
    4.6080   -0.6635    0.0000 O   0  0  0  0  0  0  0  0  0  0  0  0
  1  2  2  0  0  0  0
  2  3  1  0  0  0  0
  3  4  1  0  0  0  0
  3  7  1  0  0  0  0
  4  5  1  0  0  0  0
  5  6  1  0  0  0  0
  7  8  1  0  0  0  0
  8  9  1  0  0  0  0
M  END
>  <ActivityOutcome_CPDBAS_Rat>
active

>  <cdk:Formula>
[]

>  <TD50_Rat_mmol>
0.0236

>  <net.bioclipse.cdk.fingerprint>
EAAAAAAAAgAAAgAAgAAAAAAAAAgAAAAAAAAAAAAEAQAAYAAAAAAAAAAAAAAACCAAAQAAAAAAAAAAAIAAAAAAAAAAAAAAAAAAAAAAAACAAAAAYAAAAAAAABAAAAAAAAAABCAAAAAAAABAAAAAAAAAAAAAAAABAAAAAAAAAwAA

$$$$

 OpenBabel04131118512D

  7  6  0  0  0  0  0  0  0  0999 V2000
    3.9928    0.0000    0.0000 C   0  0  0  0  0  0  0  0  0  0  0  0
    2.6632    0.0000    0.0000 C   0  0  0  0  0  0  0  0  0  0  0  0
    1.9964   -1.1499    0.0000 N   0  0  0  0  0  0  0  0  0  0  0  0
    2.6632   -2.3038    0.0000 C   0  0  0  0  0  0  0  0  0  0  0  0
    3.9928   -2.3038    0.0000 C   0  0  0  0  0  0  0  0  0  0  0  0
    0.6668   -1.1499    0.0000 N   0  0  0  0  0  0  0  0  0  0  0  0
    0.0000    0.0000    0.0000 O   0  0  0  0  0  0  0  0  0  0  0  0
  1  2  1  0  0  0  0
  2  3  1  0  0  0  0
  3  4  1  0  0  0  0
  3  6  1  0  0  0  0
  4  5  1  0  0  0  0
  6  7  2  0  0  0  0
M  END
>  <ActivityOutcome_CPDBAS_Rat>
active

>  <cdk:Formula>
[]

>  <TD50_Rat_mmol>
0.000259

>  <net.bioclipse.cdk.fingerprint>
EAAAAAAAAgAAAAAAgAAAAAAAAAAAAAAAAAAAAAAEAQAAYAAAAAAAAAAAAAAAACAAAQAAAAAAAAAAAIAAAAAAAAAAAAAAAAAAAAAAAACAAAAAAAAAAAAAAAAAAAAAAAAABCAAAAAAAAAAAAAAAAAAAAAAAAAAAAAAAAAAAwAA

$$$$

 OpenBabel04131118512D

  5  4  0  0  0  0  0  0  0  0999 V2000
    3.4567   -1.9945    0.0000 C   0  0  0  0  0  0  0  0  0  0  0  0
    2.3056   -1.3308    0.0000 N   0  0  0  0  0  0  0  0  0  0  0  0
    1.1511   -1.9945    0.0000 N   0  0  0  0  0  0  0  0  0  0  0  0
    0.0000   -1.3308    0.0000 O   0  0  0  0  0  0  0  0  0  0  0  0
    2.3056    0.0000    0.0000 C   0  0  0  0  0  0  0  0  0  0  0  0
  1  2  1  0  0  0  0
  2  3  1  0  0  0  0
  2  5  1  0  0  0  0
  3  4  2  0  0  0  0
M  END
>  <ActivityOutcome_CPDBAS_Rat>
active

>  <cdk:Formula>
[]

>  <TD50_Rat_mmol>
0.00129

>  <net.bioclipse.cdk.fingerprint>
BAAAAGAAAAAAAAAAAAAAAAAAAAEAAAAAAAAAAACAAAAAAAAAAAAAAAAAAAAAAAAAAAAAAAAAAAAAAAAAAAAAAAAAAAQgAAAAAAAAAAAAAAAAAAAAAAAAAAAAAAAAAAMAAA==

$$$$

 OpenBabel04131118512D

 15 16  0  0  0  0  0  0  0  0999 V2000
    2.3008    0.0000    0.0000 O   0  0  0  0  0  0  0  0  0  0  0  0
    3.4546   -0.6702    0.0000 N   0  0  0  0  0  0  0  0  0  0  0  0
    3.4546   -1.9968    0.0000 N   0  0  0  0  0  0  0  0  0  0  0  0
    4.6085   -2.6601    0.0000 C   0  0  0  0  0  0  0  0  0  0  0  0
    5.7554   -1.9968    0.0000 C   0  0  0  0  0  0  0  0  0  0  0  0
    6.9093   -2.6601    0.0000 C   0  0  0  0  0  0  0  0  0  0  0  0
    6.9093   -3.9935    0.0000 C   0  0  0  0  0  0  0  0  0  0  0  0
    5.7554   -4.6568    0.0000 C   0  0  0  0  0  0  0  0  0  0  0  0
    4.6085   -3.9935    0.0000 C   0  0  0  0  0  0  0  0  0  0  0  0
    2.3008   -2.6601    0.0000 C   0  0  0  0  0  0  0  0  0  0  0  0
    2.3008   -3.9935    0.0000 C   0  0  0  0  0  0  0  0  0  0  0  0
    1.1538   -4.6568    0.0000 C   0  0  0  0  0  0  0  0  0  0  0  0
    0.0000   -3.9935    0.0000 C   0  0  0  0  0  0  0  0  0  0  0  0
    0.0000   -2.6601    0.0000 C   0  0  0  0  0  0  0  0  0  0  0  0
    1.1538   -1.9968    0.0000 C   0  0  0  0  0  0  0  0  0  0  0  0
  1  2  2  0  0  0  0
  2  3  1  0  0  0  0
  3  4  1  0  0  0  0
  3 10  1  0  0  0  0
  4  5  2  0  0  0  0
  4  9  1  0  0  0  0
  5  6  1  0  0  0  0
  6  7  2  0  0  0  0
  7  8  1  0  0  0  0
  8  9  2  0  0  0  0
 10 11  2  0  0  0  0
 10 15  1  0  0  0  0
 11 12  1  0  0  0  0
 12 13  2  0  0  0  0
 13 14  1  0  0  0  0
 14 15  2  0  0  0  0
M  END
>  <ActivityOutcome_CPDBAS_Rat>
active

>  <cdk:Formula>
[]

>  <TD50_Rat_mmol>
0.842

>  <net.bioclipse.cdk.fingerprint>
CAAAAAAgAAgAAAAAAEAAAIAAAABAAAAAAAAESAZAAABgAAgAAAAAAEAAAAAAAAAFAAAABgBAAAAAgAQAAEAAAAAEIAAAAAAAAAAAAAAIIAAIMAAAAAAAAAAAAAAAIQEEIAAgAAAAAAACAAAAAAAAAACAAAAAAAAAAEADEAA=

$$$$

 OpenBabel04131118512D

 15 16  0  0  0  0  0  0  0  0999 V2000
    4.1413   -0.4181    0.0000 N   0  0  0  0  0  0  0  0  0  0  0  0
    5.6048   -1.2544    0.0000 C   0  0  0  0  0  0  0  0  0  0  0  0
    6.7297   -0.6073    0.0000 C   0  0  0  0  0  0  0  0  0  0  0  0
    7.8546   -1.2544    0.0000 C   0  0  0  0  0  0  0  0  0  0  0  0
    7.8546   -2.5585    0.0000 C   0  0  0  0  0  0  0  0  0  0  0  0
    6.7297   -3.2056    0.0000 C   0  0  0  0  0  0  0  0  0  0  0  0
    5.6048   -2.5585    0.0000 C   0  0  0  0  0  0  0  0  0  0  0  0
    8.9796   -3.2056    0.0000 N   0  0  0  0  0  0  0  0  0  0  0  0
    2.5585   -0.9955    0.0000 C   0  0  0  0  0  0  0  0  0  0  0  0
    2.1105   -2.2100    0.0000 C   0  0  0  0  0  0  0  0  0  0  0  0
    0.8362   -2.4390    0.0000 C   0  0  0  0  0  0  0  0  0  0  0  0
    0.0000   -1.4435    0.0000 C   0  0  0  0  0  0  0  0  0  0  0  0
    0.4480   -0.2190    0.0000 C   0  0  0  0  0  0  0  0  0  0  0  0
    1.7222    0.0000    0.0000 C   0  0  0  0  0  0  0  0  0  0  0  0
    9.9552   -2.8870    0.0000 O   0  0  0  0  0  0  0  0  0  0  0  0
  1  2  1  0  0  0  0
  1  9  1  0  0  0  0
  2  3  1  0  0  0  0
  2  7  2  0  0  0  0
  3  4  2  0  0  0  0
  4  5  1  0  0  0  0
  5  6  2  0  0  0  0
  5  8  1  0  0  0  0
  6  7  1  0  0  0  0
  8 15  2  0  0  0  0
  9 10  2  0  0  0  0
  9 14  1  0  0  0  0
 10 11  1  0  0  0  0
 11 12  2  0  0  0  0
 12 13  1  0  0  0  0
 13 14  2  0  0  0  0
M  END
>  <ActivityOutcome_CPDBAS_Rat>
active

>  <cdk:Formula>
[]

>  <TD50_Rat_mmol>
1.01

>  <net.bioclipse.cdk.fingerprint>
BAAAAAACAAAgAAAAAIAAAAAAAAAAABhAEAABAAAEQAJAAABgAAQQAAAAAAAAAAAAAAAEAAAABgBABAAAgAQAAEAAAAAEIAAAAAAAAAAAAAAIIAAAEAAAQAAAAAAAAAAAIAEEAAAgAAAAACACAAAAAAAAAACAAAAAAAAAAEACEIA=

$$$$

 OpenBabel04131118512D

  9  8  0  0  0  0  0  0  0  0999 V2000
    0.0000   -1.9953    0.0000 O   0  0  0  0  0  0  0  0  0  0  0  0
    1.1520   -2.6588    0.0000 N   0  0  0  0  0  0  0  0  0  0  0  0
    2.3040   -1.9953    0.0000 N   0  0  0  0  0  0  0  0  0  0  0  0
    2.3040   -0.6635    0.0000 C   0  0  0  0  0  0  0  0  0  0  0  0
    1.1520    0.0000    0.0000 C   0  0  0  0  0  0  0  0  0  0  0  0
    0.0000   -0.6635    0.0000 C   0  0  0  0  0  0  0  0  0  0  0  0
    3.4560   -2.6588    0.0000 C   0  0  0  0  0  0  0  0  0  0  0  0
    4.6080   -1.9953    0.0000 C   0  0  0  0  0  0  0  0  0  0  0  0
    4.6080   -0.6635    0.0000 C   0  0  0  0  0  0  0  0  0  0  0  0
  1  2  2  0  0  0  0
  2  3  1  0  0  0  0
  3  4  1  0  0  0  0
  3  7  1  0  0  0  0
  4  5  1  0  0  0  0
  5  6  1  0  0  0  0
  7  8  1  0  0  0  0
  8  9  1  0  0  0  0
M  END
>  <ActivityOutcome_CPDBAS_Rat>
active

>  <cdk:Formula>
[]

>  <TD50_Rat_mmol>
0.00143

>  <net.bioclipse.cdk.fingerprint>
EAAAAAAAAgAAAAABgAAAAAAAABAAAAAAAAAAAAAEAQAAYAAEAAAAAAAAAAAAACAAEQAAAAAAAAAAAMAAAAAAAAAAAAAAAAAAAAAAAACAAAAAACAAAAAAAAAAAAAAAAAABCAAAAAIAAAAAAAAAAAAAAAAAAAAAAAAAAAAAwAA

$$$$

 OpenBabel04131118512D

 15 15  0  0  0  0  0  0  0  0999 V2000
    0.0000   -2.3857    0.0000 O   0  0  0  0  0  0  0  0  0  0  0  0
    0.9466   -3.3169    0.0000 N   0  0  0  0  0  0  0  0  0  0  0  0
    2.2318   -2.9629    0.0000 N   0  0  0  0  0  0  0  0  0  0  0  0
    3.1630   -1.9624    0.0000 C   0  0  0  0  0  0  0  0  0  0  0  0
    3.1630   -0.6541    0.0000 C   0  0  0  0  0  0  0  0  0  0  0  0
    4.3020    0.0000    0.0000 C   0  0  0  0  0  0  0  0  0  0  0  0
    5.4333   -0.6541    0.0000 C   0  0  0  0  0  0  0  0  0  0  0  0
    6.5646    0.0000    0.0000 C   0  0  0  0  0  0  0  0  0  0  0  0
    7.6958   -0.6541    0.0000 C   0  0  0  0  0  0  0  0  0  0  0  0
    2.9706   -4.2404    0.0000 C   0  0  0  0  0  0  0  0  0  0  0  0
    4.2943   -3.9249    0.0000 C   0  0  0  0  0  0  0  0  0  0  0  0
    5.4256   -4.5790    0.0000 C   0  0  0  0  0  0  0  0  0  0  0  0
    6.5646   -3.9249    0.0000 C   0  0  0  0  0  0  0  0  0  0  0  0
    6.5646   -2.6166    0.0000 C   0  0  0  0  0  0  0  0  0  0  0  0
    7.6958   -1.9624    0.0000 C   0  0  0  0  0  0  0  0  0  0  0  0
  1  2  2  0  0  0  0
  2  3  1  0  0  0  0
  3  4  1  0  0  0  0
  3 10  1  0  0  0  0
  4  5  1  0  0  0  0
  5  6  1  0  0  0  0
  6  7  1  0  0  0  0
  7  8  1  0  0  0  0
  8  9  1  0  0  0  0
  9 15  1  0  0  0  0
 10 11  1  0  0  0  0
 11 12  1  0  0  0  0
 12 13  1  0  0  0  0
 13 14  1  0  0  0  0
 14 15  1  0  0  0  0
M  END
>  <ActivityOutcome_CPDBAS_Rat>
active

>  <cdk:Formula>
[]

>  <TD50_Rat_mmol>
0.0513

>  <net.bioclipse.cdk.fingerprint>
EAAAAAAAAgAAEAABhAABAAAAABAAAEAAAAAAAAAEAQEAYAAEAAAAAAAACAAAECAAEQAAAAAAAABAAMAAAAAAAAAAAAAAQAAAAAAAAAGAAAAEACAAQAAAAAAAAAEAAABABGAAAUAIACgIIAAQAAAAAAAAAQAAAAgABAAACwgA

$$$$

 OpenBabel04131118512D

 14 14  0  0  0  0  0  0  0  0999 V2000
    1.9922   -4.6067    0.0000 C   0  0  0  0  0  0  0  0  0  0  0  0
    0.6641   -4.6067    0.0000 C   0  0  0  0  0  0  0  0  0  0  0  0
    0.0000   -3.4580    0.0000 C   0  0  0  0  0  0  0  0  0  0  0  0
    0.6641   -2.3033    0.0000 C   0  0  0  0  0  0  0  0  0  0  0  0
    1.9922   -2.3033    0.0000 C   0  0  0  0  0  0  0  0  0  0  0  0
    2.6563   -3.4580    0.0000 C   0  0  0  0  0  0  0  0  0  0  0  0
    3.9904   -3.4580    0.0000 C   0  0  0  0  0  0  0  0  0  0  0  0
    4.6545   -4.6067    0.0000 O   0  0  0  0  0  0  0  0  0  0  0  0
    4.6545   -2.3033    0.0000 C   0  0  0  0  0  0  0  0  0  0  0  0
    3.9904   -1.1547    0.0000 N   0  0  0  0  0  0  0  0  0  0  0  0
    4.6545    0.0000    0.0000 C   0  0  0  0  0  0  0  0  0  0  0  0
    2.6563   -1.1547    0.0000 N   0  0  0  0  0  0  0  0  0  0  0  0
    1.9922    0.0000    0.0000 O   0  0  0  0  0  0  0  0  0  0  0  0
    5.9827   -2.3033    0.0000 C   0  0  0  0  0  0  0  0  0  0  0  0
  1  2  2  0  0  0  0
  1  6  1  0  0  0  0
  2  3  1  0  0  0  0
  3  4  2  0  0  0  0
  4  5  1  0  0  0  0
  5  6  2  0  0  0  0
  6  7  1  0  0  0  0
  7  8  1  0  0  0  0
  7  9  1  0  0  0  0
  9 10  1  0  0  0  0
  9 14  1  0  0  0  0
 10 11  1  0  0  0  0
 10 12  1  0  0  0  0
 12 13  2  0  0  0  0
M  END
>  <ActivityOutcome_CPDBAS_Rat>
active

>  <cdk:Formula>
[]

>  <TD50_Rat_mmol>
0.49

>  <net.bioclipse.cdk.fingerprint>
AIICAAASAAGAAAAIAAgAGAAAAQIAAAAABAQJAABgAAAIAAAAAAAAAgAYIAABAAAABCBAAAAAwAAAAAAEDAAAAAAABAACAAAAAIAAAABgIAAAAACAEAAAAIAAMAAEIEAkBAgAAAACQBAECACAHACAAAAEAAEAAAIDAAA=

$$$$

 OpenBabel04131118512D

  6  5  0  0  0  0  0  0  0  0999 V2000
    2.3042    0.0000    0.0000 C   0  0  0  0  0  0  0  0  0  0  0  0
    2.3042   -1.3318    0.0000 N   0  0  0  0  0  0  0  0  0  0  0  0
    3.4563   -1.9954    0.0000 C   0  0  0  0  0  0  0  0  0  0  0  0
    4.6084   -1.3318    0.0000 C   0  0  0  0  0  0  0  0  0  0  0  0
    1.1521   -1.9954    0.0000 N   0  0  0  0  0  0  0  0  0  0  0  0
    0.0000   -1.3318    0.0000 O   0  0  0  0  0  0  0  0  0  0  0  0
  1  2  1  0  0  0  0
  2  3  1  0  0  0  0
  2  5  1  0  0  0  0
  3  4  1  0  0  0  0
  5  6  2  0  0  0  0
M  END
>  <ActivityOutcome_CPDBAS_Rat>
active

>  <cdk:Formula>
[]

>  <TD50_Rat_mmol>
0.000571

>  <net.bioclipse.cdk.fingerprint>
AgAAAAAAgAAAAAAAAAAAAAAAAAAAAAAEAQAAYAAAAAAAAAAAAAAAACAAAQAAAAAAAAAAAIAAAAAAAAAAAAAAAAAAAAAAAACAAAAAAAAAAAAAAAAAAAAAAAAABCAAAAAAAAAAAAAAAAAAAAAAAAAAAAAAAAAAAwAA

$$$$

 OpenBabel04131118512D

 10  9  0  0  0  0  0  0  0  0999 V2000
    3.9886   -3.4533    0.0000 O   0  0  0  0  0  0  0  0  0  0  0  0
    2.6591   -3.4533    0.0000 C   0  0  0  0  0  0  0  0  0  0  0  0
    1.9914   -4.6044    0.0000 N   0  0  0  0  0  0  0  0  0  0  0  0
    0.6619   -4.6044    0.0000 C   0  0  0  0  0  0  0  0  0  0  0  0
    0.0000   -5.7555    0.0000 C   0  0  0  0  0  0  0  0  0  0  0  0
    2.6591   -5.7555    0.0000 N   0  0  0  0  0  0  0  0  0  0  0  0
    3.9886   -5.7555    0.0000 O   0  0  0  0  0  0  0  0  0  0  0  0
    1.9914   -2.3022    0.0000 O   0  0  0  0  0  0  0  0  0  0  0  0
    2.6591   -1.1511    0.0000 C   0  0  0  0  0  0  0  0  0  0  0  0
    1.9914    0.0000    0.0000 C   0  0  0  0  0  0  0  0  0  0  0  0
  1  2  2  0  0  0  0
  2  3  1  0  0  0  0
  2  8  1  0  0  0  0
  3  4  1  0  0  0  0
  3  6  1  0  0  0  0
  4  5  1  0  0  0  0
  6  7  2  0  0  0  0
  8  9  1  0  0  0  0
  9 10  1  0  0  0  0
M  END
>  <ActivityOutcome_CPDBAS_Rat>
active

>  <cdk:Formula>
[]

>  <TD50_Rat_mmol>
0.000619

>  <net.bioclipse.cdk.fingerprint>
AYAAAAACAAACAACAAAAAAAAAAAAAgAAAAIAAAAQFAAhgAAACAAAAAAAAAAFAIQIBAAAAAAAAAAAAwAAIAoAAAAABAAAAAAAAAAAAAIkAAAAAAAQAAEAAEQAAAAAAAABEIAAAAAAAAEAAAAAAAAgAAAAAQAAAAAAAAAADAAA=

$$$$

 OpenBabel04131118512D

 10 10  0  0  0  0  0  0  0  0999 V2000
    0.0000   -1.9372    0.0000 O   0  0  0  0  0  0  0  0  0  0  0  0
    1.0397   -2.7471    0.0000 N   0  0  0  0  0  0  0  0  0  0  0  0
    2.2655   -2.2546    0.0000 N   0  0  0  0  0  0  0  0  0  0  0  0
    2.2655   -0.9358    0.0000 C   0  0  0  0  0  0  0  0  0  0  0  0
    3.2013    0.0000    0.0000 C   0  0  0  0  0  0  0  0  0  0  0  0
    4.5310    0.0000    0.0000 C   0  0  0  0  0  0  0  0  0  0  0  0
    5.4722   -0.9467    0.0000 C   0  0  0  0  0  0  0  0  0  0  0  0
    5.4722   -2.2819    0.0000 C   0  0  0  0  0  0  0  0  0  0  0  0
    4.5255   -3.2286    0.0000 C   0  0  0  0  0  0  0  0  0  0  0  0
    3.1848   -3.2286    0.0000 C   0  0  0  0  0  0  0  0  0  0  0  0
  1  2  2  0  0  0  0
  2  3  1  0  0  0  0
  3  4  1  0  0  0  0
  3 10  1  0  0  0  0
  4  5  1  0  0  0  0
  5  6  1  0  0  0  0
  6  7  1  0  0  0  0
  7  8  1  0  0  0  0
  8  9  1  0  0  0  0
  9 10  1  0  0  0  0
M  END
>  <ActivityOutcome_CPDBAS_Rat>
active

>  <cdk:Formula>
[]

>  <TD50_Rat_mmol>
0.000266

>  <net.bioclipse.cdk.fingerprint>
EAAAAAAAAgAAAAABgAABAAAAABAAAEAAAAAAAAAEAQEAYAAEAAAAAAAACAAAECAAEQAAAAAAAABAAMAAAAAAAAAAAAAAQAAAAAAAAAGAAAAEACAAQAAAAAAAAAEAAABABCAAAQAIACgIIAAQAAAAAAAAAAAAAAgAAAAACwAA

$$$$

 OpenBabel04131118512D

  9  9  0  0  0  0  0  0  0  0999 V2000
    2.2893   -0.7820    0.0000 C   0  0  0  0  0  0  0  0  0  0  0  0
    3.5529   -0.3740    0.0000 N   0  0  0  0  0  0  0  0  0  0  0  0
    4.3348   -1.4506    0.0000 C   0  0  0  0  0  0  0  0  0  0  0  0
    3.5529   -2.5272    0.0000 C   0  0  0  0  0  0  0  0  0  0  0  0
    2.2893   -2.1136    0.0000 N   0  0  0  0  0  0  0  0  0  0  0  0
    1.2126   -2.8956    0.0000 N   0  0  0  0  0  0  0  0  0  0  0  0
    0.0000   -2.3572    0.0000 O   0  0  0  0  0  0  0  0  0  0  0  0
    5.6665   -1.4506    0.0000 O   0  0  0  0  0  0  0  0  0  0  0  0
    1.2126    0.0000    0.0000 O   0  0  0  0  0  0  0  0  0  0  0  0
  1  2  1  0  0  0  0
  1  5  1  0  0  0  0
  1  9  2  0  0  0  0
  2  3  1  0  0  0  0
  3  4  1  0  0  0  0
  3  8  2  0  0  0  0
  4  5  1  0  0  0  0
  5  6  1  0  0  0  0
  6  7  2  0  0  0  0
M  END
>  <ActivityOutcome_CPDBAS_Rat>
active

>  <cdk:Formula>
[]

>  <TD50_Rat_mmol>
0.339

>  <net.bioclipse.cdk.fingerprint>
MAAIEAAAAhAQSoABgAAAABAAAAgCAAAAAQAAAAAEBQAgYAAAAoACAAAAAAABQCAAAQACQAAAAAAEAIAAAAKAAAAAAAAAAAAAAAAAAACAAAAAAAAAAAAAAAAAAAAIAAAARCAAAAAEAAAAAAAAAACAAEAEAFAAAAAAAAAgAwAA

$$$$

 OpenBabel04131118512D

 10  9  0  0  0  0  0  0  0  0999 V2000
    5.8114   -2.0343    0.0000 C   0  0  0  0  0  0  0  0  0  0  0  0
    5.8114   -0.7151    0.0000 O   0  0  0  0  0  0  0  0  0  0  0  0
    6.9432   -2.7078    0.0000 O   0  0  0  0  0  0  0  0  0  0  0  0
    4.6519   -2.7078    0.0000 C   0  0  0  0  0  0  0  0  0  0  0  0
    3.4507   -2.0621    0.0000 C   0  0  0  0  0  0  0  0  0  0  0  0
    2.2912   -2.7078    0.0000 C   0  0  0  0  0  0  0  0  0  0  0  0
    1.1595   -2.0135    0.0000 N   0  0  0  0  0  0  0  0  0  0  0  0
    1.1803   -0.6943    0.0000 N   0  0  0  0  0  0  0  0  0  0  0  0
    0.0486    0.0000    0.0000 O   0  0  0  0  0  0  0  0  0  0  0  0
    0.0000   -2.6592    0.0000 C   0  0  0  0  0  0  0  0  0  0  0  0
  1  2  2  0  0  0  0
  1  3  1  0  0  0  0
  1  4  1  0  0  0  0
  4  5  1  0  0  0  0
  5  6  1  0  0  0  0
  6  7  1  0  0  0  0
  7  8  1  0  0  0  0
  7 10  1  0  0  0  0
  8  9  2  0  0  0  0
M  END
>  <ActivityOutcome_CPDBAS_Rat>
active

>  <cdk:Formula>
[]

>  <TD50_Rat_mmol>
0.00672

>  <net.bioclipse.cdk.fingerprint>
AgAAAgABgAABAAAAABAAAAAAAAAAAAAEBQABYAAAAAAAAIQAAAAAECAAAwAAAQAAAAAAIMAAAAAAAAAAAAAAQAAAAAAAAACAAAAAACAAQAAAFBAAAAAAAAAARCAAAAAIAAAAAAAQAAEAAAAAAFAQAAAAAAAAAwAA

$$$$

 OpenBabel04131118512D

  9  8  0  0  0  0  0  0  0  0999 V2000
    2.3046   -1.9992    0.0000 N   0  0  0  0  0  0  0  0  0  0  0  0
    3.4569   -2.6618    0.0000 C   0  0  0  0  0  0  0  0  0  0  0  0
    4.6092   -1.9992    0.0000 C   0  0  0  0  0  0  0  0  0  0  0  0
    4.6092   -0.6683    0.0000 C   0  0  0  0  0  0  0  0  0  0  0  0
    3.4569    0.0000    0.0000 O   0  0  0  0  0  0  0  0  0  0  0  0
    5.7615   -2.6618    0.0000 O   0  0  0  0  0  0  0  0  0  0  0  0
    2.3046   -0.6683    0.0000 C   0  0  0  0  0  0  0  0  0  0  0  0
    1.1523   -2.6618    0.0000 N   0  0  0  0  0  0  0  0  0  0  0  0
    0.0000   -1.9992    0.0000 O   0  0  0  0  0  0  0  0  0  0  0  0
  1  2  1  0  0  0  0
  1  7  1  0  0  0  0
  1  8  1  0  0  0  0
  2  3  1  0  0  0  0
  3  4  1  0  0  0  0
  3  6  1  0  0  0  0
  4  5  1  0  0  0  0
  8  9  2  0  0  0  0
M  END
>  <ActivityOutcome_CPDBAS_Rat>
active

>  <cdk:Formula>
[]

>  <TD50_Rat_mmol>
0.00482

>  <net.bioclipse.cdk.fingerprint>
AgAAAgABgAAAEAAAABgAAAAAAAAAAAAEAQAAYAAAAAAAAAAAAAAAGCAAAQAAAAAAAAAAAMAAAAAAAAAAAAAAAAAAAAAAAACAAAAAaiAAAAAAABAAAAAAAAAABCAAAAAIAAAAAAAAAAAAAAAAAABAAAAAAAAAAwAA

$$$$

 OpenBabel04131118512D

  7  6  0  0  0  0  0  0  0  0999 V2000
    2.3037    0.0000    0.0000 C   0  0  0  0  0  0  0  0  0  0  0  0
    2.3037   -1.3315    0.0000 N   0  0  0  0  0  0  0  0  0  0  0  0
    3.4555   -1.9950    0.0000 C   0  0  0  0  0  0  0  0  0  0  0  0
    4.6073   -1.3315    0.0000 C   0  0  0  0  0  0  0  0  0  0  0  0
    4.6073    0.0000    0.0000 O   0  0  0  0  0  0  0  0  0  0  0  0
    1.1518   -1.9950    0.0000 N   0  0  0  0  0  0  0  0  0  0  0  0
    0.0000   -1.3315    0.0000 O   0  0  0  0  0  0  0  0  0  0  0  0
  1  2  1  0  0  0  0
  2  3  1  0  0  0  0
  2  6  1  0  0  0  0
  3  4  1  0  0  0  0
  4  5  1  0  0  0  0
  6  7  2  0  0  0  0
M  END
>  <ActivityOutcome_CPDBAS_Rat>
active

>  <cdk:Formula>
[]

>  <TD50_Rat_mmol>
0.0124

>  <net.bioclipse.cdk.fingerprint>
AgAAAgAAgAAAAAAAAAgAAAAAAAAAAAAEAQAAYAAAAAAAAAAAAAAACCAAAQAAAAAAAAAAAIAAAAAAAAAAAAAAAAAAAAAAAACAAAAAYAAAAAAAABAAAAAAAAAABCAAAAAAAAAAAAAAAAAAAAAAAAAAAAAAAAAAAwAA

$$$$

 OpenBabel04131118512D

  8  7  0  0  0  0  0  0  0  0999 V2000
    0.6642   -1.1549    0.0000 N   0  0  0  0  0  0  0  0  0  0  0  0
    1.9926   -1.1549    0.0000 N   0  0  0  0  0  0  0  0  0  0  0  0
    2.6569   -2.3038    0.0000 C   0  0  0  0  0  0  0  0  0  0  0  0
    3.9913   -2.3038    0.0000 C   0  0  0  0  0  0  0  0  0  0  0  0
    4.6555   -1.1549    0.0000 C   0  0  0  0  0  0  0  0  0  0  0  0
    5.9839   -1.1549    0.0000 O   0  0  0  0  0  0  0  0  0  0  0  0
    2.6569    0.0000    0.0000 C   0  0  0  0  0  0  0  0  0  0  0  0
    0.0000    0.0000    0.0000 O   0  0  0  0  0  0  0  0  0  0  0  0
  1  2  1  0  0  0  0
  1  8  2  0  0  0  0
  2  3  1  0  0  0  0
  2  7  1  0  0  0  0
  3  4  1  0  0  0  0
  4  5  1  0  0  0  0
  5  6  1  0  0  0  0
M  END
>  <ActivityOutcome_CPDBAS_Rat>
active

>  <cdk:Formula>
[]

>  <TD50_Rat_mmol>
0.0141

>  <net.bioclipse.cdk.fingerprint>
AgAAAgABgAAAEAAAABAAAAAAAAAAAAAEAQAAYAAAAAAAAAAAAAAAECAAAQAAAAAAAAAAAMAAAAAAAAAAAAAAAAAAAAAAAACAAAAACiAAAAAAABAAAAAAAAAABCAAAAAIAAAAAAAAAAAAAAAAAABAAAAAAAAAAwAA

$$$$

 OpenBabel04131118512D

  8  7  0  0  0  0  0  0  0  0999 V2000
    1.1526   -1.9939    0.0000 N   0  0  0  0  0  0  0  0  0  0  0  0
    2.3051   -1.3312    0.0000 N   0  0  0  0  0  0  0  0  0  0  0  0
    3.4577   -1.9939    0.0000 C   0  0  0  0  0  0  0  0  0  0  0  0
    4.6103   -1.3312    0.0000 C   0  0  0  0  0  0  0  0  0  0  0  0
    4.6103    0.0000    0.0000 C   0  0  0  0  0  0  0  0  0  0  0  0
    5.7628   -1.9939    0.0000 O   0  0  0  0  0  0  0  0  0  0  0  0
    2.3051    0.0000    0.0000 C   0  0  0  0  0  0  0  0  0  0  0  0
    0.0000   -1.3312    0.0000 O   0  0  0  0  0  0  0  0  0  0  0  0
  1  2  1  0  0  0  0
  1  8  2  0  0  0  0
  2  3  1  0  0  0  0
  2  7  1  0  0  0  0
  3  4  1  0  0  0  0
  4  5  1  0  0  0  0
  4  6  1  0  0  0  0
M  END
>  <ActivityOutcome_CPDBAS_Rat>
active

>  <cdk:Formula>
[]

>  <TD50_Rat_mmol>
0.000392

>  <net.bioclipse.cdk.fingerprint>
AgAAAgABgAAAAAAAABgAAAAAAAAAAAAEAQAAYAAAAAAAAAAAAAAACCAAAQAAAAAAAAAAAMAAAAAAAAAAAAAAAAAAAAAAAACAAAAAYCAAAAAAABAAAAAAAAAABCAAAAAIAAAAAAAAAAAAAAAAAAAAAAAAAAAAAwAA

$$$$

 OpenBabel04131118512D

  8  7  0  0  0  0  0  0  0  0999 V2000
    2.3051    0.0000    0.0000 C   0  0  0  0  0  0  0  0  0  0  0  0
    2.3051   -1.3312    0.0000 N   0  0  0  0  0  0  0  0  0  0  0  0
    3.4577   -1.9939    0.0000 C   0  0  0  0  0  0  0  0  0  0  0  0
    4.6103   -1.3312    0.0000 C   0  0  0  0  0  0  0  0  0  0  0  0
    5.7628   -1.9939    0.0000 C   0  0  0  0  0  0  0  0  0  0  0  0
    4.6103    0.0000    0.0000 O   0  0  0  0  0  0  0  0  0  0  0  0
    1.1526   -1.9939    0.0000 N   0  0  0  0  0  0  0  0  0  0  0  0
    0.0000   -1.3312    0.0000 O   0  0  0  0  0  0  0  0  0  0  0  0
  1  2  1  0  0  0  0
  2  3  1  0  0  0  0
  2  7  1  0  0  0  0
  3  4  1  0  0  0  0
  4  5  1  0  0  0  0
  4  6  2  0  0  0  0
  7  8  2  0  0  0  0
M  END
>  <ActivityOutcome_CPDBAS_Rat>
active

>  <cdk:Formula>
[]

>  <TD50_Rat_mmol>
0.000148

>  <net.bioclipse.cdk.fingerprint>
AgAAAoABgAAAAAAAABAAAAAAAQAAAAAEAQAAYAAAAAAAAAAAAAAAACAAAQAAAAAAAAAAAMAAAAAAAAAAAAAAAAAAAAAAAACAAAAAACAAAAAAAAAAAAAAAAAARCAAAAAIAAAAAAAAAACAAAAAABAAAAAAAAAAAwAA

$$$$

 OpenBabel04131118512D

 17 17  0  0  0  0  0  0  0  0999 V2000
    0.0000    0.0000    0.0000 O   0  0  0  0  0  0  0  0  0  0  0  0
    9.3162   -4.6016    0.0000 C   0  0  0  0  0  0  0  0  0  0  0  0
    7.9821   -4.6016    0.0000 C   0  0  0  0  0  0  0  0  0  0  0  0
    9.9719   -3.4483    0.0000 C   0  0  0  0  0  0  0  0  0  0  0  0
    7.3150   -3.4483    0.0000 C   0  0  0  0  0  0  0  0  0  0  0  0
    9.3162   -2.2951    0.0000 C   0  0  0  0  0  0  0  0  0  0  0  0
    7.9821   -2.2951    0.0000 C   0  0  0  0  0  0  0  0  0  0  0  0
   11.3060   -3.4483    0.0000 C   0  0  0  0  0  0  0  0  0  0  0  0
    5.9809   -3.4483    0.0000 S   0  0  0  0  0  0  0  0  0  0  0  0
    5.9809   -4.7825    0.0000 O   0  0  0  0  0  0  0  0  0  0  0  0
    5.9809   -2.1255    0.0000 O   0  0  0  0  0  0  0  0  0  0  0  0
    4.6581   -3.4483    0.0000 O   0  0  0  0  0  0  0  0  0  0  0  0
    3.9910   -2.2951    0.0000 C   0  0  0  0  0  0  0  0  0  0  0  0
    2.6569   -2.2951    0.0000 C   0  0  0  0  0  0  0  0  0  0  0  0
    1.9899   -1.1532    0.0000 N   0  0  0  0  0  0  0  0  0  0  0  0
    0.6671   -1.1532    0.0000 N   0  0  0  0  0  0  0  0  0  0  0  0
    2.6569    0.0000    0.0000 C   0  0  0  0  0  0  0  0  0  0  0  0
  1 16  2  0  0  0  0
  2  3  1  0  0  0  0
  2  4  2  0  0  0  0
  3  5  2  0  0  0  0
  4  6  1  0  0  0  0
  4  8  1  0  0  0  0
  5  7  1  0  0  0  0
  5  9  1  0  0  0  0
  6  7  2  0  0  0  0
  9 10  2  0  0  0  0
  9 11  2  0  0  0  0
  9 12  1  0  0  0  0
 12 13  1  0  0  0  0
 13 14  1  0  0  0  0
 14 15  1  0  0  0  0
 15 16  1  0  0  0  0
 15 17  1  0  0  0  0
M  END
>  <ActivityOutcome_CPDBAS_Rat>
active

>  <cdk:Formula>
[]

>  <TD50_Rat_mmol>
0.0186

>  <net.bioclipse.cdk.fingerprint>
AIAAghAAAAAAAkAAggIAgAAQAQAAAAgIAAAAAAAAAABEAQABZAABgAAAAAAACAAACCAAAQBBFAIAQAAAAIACgAIABKIAAAARSADAAAAgAICAAAAAYoAAAAAAgxAAAAKAACAABCDAIAAAIAAAAkkQAEACQAAAkgAiMBUgAQBAAwAA

$$$$

 OpenBabel04131118512D

 10 10  0  0  0  0  0  0  0  0999 V2000
    5.3206    0.0000    0.0000 C   0  0  0  0  0  0  0  0  0  0  0  0
    5.9849   -1.1551    0.0000 C   0  0  0  0  0  0  0  0  0  0  0  0
    5.3206   -2.3042    0.0000 C   0  0  0  0  0  0  0  0  0  0  0  0
    3.9919   -2.3042    0.0000 C   0  0  0  0  0  0  0  0  0  0  0  0
    3.3276   -1.1551    0.0000 C   0  0  0  0  0  0  0  0  0  0  0  0
    3.9919    0.0000    0.0000 N   0  0  0  0  0  0  0  0  0  0  0  0
    1.9930   -1.1551    0.0000 N   0  0  0  0  0  0  0  0  0  0  0  0
    1.3286   -2.3042    0.0000 N   0  0  0  0  0  0  0  0  0  0  0  0
    0.0000   -2.3042    0.0000 O   0  0  0  0  0  0  0  0  0  0  0  0
    1.3286    0.0000    0.0000 C   0  0  0  0  0  0  0  0  0  0  0  0
  1  2  2  0  0  0  0
  1  6  1  0  0  0  0
  2  3  1  0  0  0  0
  3  4  2  0  0  0  0
  4  5  1  0  0  0  0
  5  6  2  0  0  0  0
  5  7  1  0  0  0  0
  7  8  1  0  0  0  0
  7 10  1  0  0  0  0
  8  9  2  0  0  0  0
M  END
>  <ActivityOutcome_CPDBAS_Rat>
active

>  <cdk:Formula>
[]

>  <TD50_Rat_mmol>
0.00156

>  <net.bioclipse.cdk.fingerprint>
CgCQChQgAAgMAACkAAAAAIAAAABAAAAQAAAECAYEAABgACwAAAAAACAAAAAIAAAFAAAAAgBAAAAAgAQAAMEAAAAAAAAEAAAgAAAAAAAAgAAIIAEAAAAQIAAAAAkAIQAEIAAgAAEAAIAAAAAAAAAAAACAAAAAAAABQAADAAA=

$$$$

 OpenBabel04131118512D

 10 10  0  0  0  0  0  0  0  0999 V2000
    1.3286    0.0000    0.0000 C   0  0  0  0  0  0  0  0  0  0  0  0
    1.9930   -1.1551    0.0000 N   0  0  0  0  0  0  0  0  0  0  0  0
    3.3276   -1.1551    0.0000 C   0  0  0  0  0  0  0  0  0  0  0  0
    3.9919    0.0000    0.0000 C   0  0  0  0  0  0  0  0  0  0  0  0
    5.3206    0.0000    0.0000 C   0  0  0  0  0  0  0  0  0  0  0  0
    5.9849   -1.1551    0.0000 C   0  0  0  0  0  0  0  0  0  0  0  0
    5.3206   -2.3042    0.0000 C   0  0  0  0  0  0  0  0  0  0  0  0
    3.9919   -2.3042    0.0000 C   0  0  0  0  0  0  0  0  0  0  0  0
    1.3286   -2.3042    0.0000 N   0  0  0  0  0  0  0  0  0  0  0  0
    0.0000   -2.3042    0.0000 O   0  0  0  0  0  0  0  0  0  0  0  0
  1  2  1  0  0  0  0
  2  3  1  0  0  0  0
  2  9  1  0  0  0  0
  3  4  2  0  0  0  0
  3  8  1  0  0  0  0
  4  5  1  0  0  0  0
  5  6  2  0  0  0  0
  6  7  1  0  0  0  0
  7  8  2  0  0  0  0
  9 10  2  0  0  0  0
M  END
>  <ActivityOutcome_CPDBAS_Rat>
active

>  <cdk:Formula>
[]

>  <TD50_Rat_mmol>
0.00104

>  <net.bioclipse.cdk.fingerprint>
CAAAAAAgAAgAAAAAAEAAAIAAAABAAAAAAAAESAYAAABgAAgAAAAAAEAAAAAAAAAFAAAAAgBAAAAAgAQAAEAAAAAAAAAAAAAAAAAAAAAAAAAIIAAAAAAAAAAAAAAAIQAEIAAgAAAAAAACAAAAAAAAAACAAAAAAAAAAAADEAA=

$$$$

 OpenBabel04131118512D

 15 14  0  0  0  0  0  0  0  0999 V2000
    2.3106    0.0000    0.0000 C   0  0  0  0  0  0  0  0  0  0  0  0
    2.3106   -1.3353    0.0000 N   0  0  0  0  0  0  0  0  0  0  0  0
    3.4658   -1.9955    0.0000 C   0  0  0  0  0  0  0  0  0  0  0  0
    4.6211   -1.3353    0.0000 C   0  0  0  0  0  0  0  0  0  0  0  0
    5.7764   -1.9955    0.0000 C   0  0  0  0  0  0  0  0  0  0  0  0
    6.9317   -1.3353    0.0000 C   0  0  0  0  0  0  0  0  0  0  0  0
    8.0719   -1.9955    0.0000 C   0  0  0  0  0  0  0  0  0  0  0  0
    9.2272   -1.3353    0.0000 C   0  0  0  0  0  0  0  0  0  0  0  0
   10.3825   -1.9955    0.0000 C   0  0  0  0  0  0  0  0  0  0  0  0
   11.5378   -1.3353    0.0000 C   0  0  0  0  0  0  0  0  0  0  0  0
   12.6930   -1.9955    0.0000 C   0  0  0  0  0  0  0  0  0  0  0  0
   13.8483   -1.3353    0.0000 C   0  0  0  0  0  0  0  0  0  0  0  0
   15.0036   -1.9955    0.0000 C   0  0  0  0  0  0  0  0  0  0  0  0
    1.1553   -1.9955    0.0000 N   0  0  0  0  0  0  0  0  0  0  0  0
    0.0000   -1.3353    0.0000 O   0  0  0  0  0  0  0  0  0  0  0  0
  1  2  1  0  0  0  0
  2  3  1  0  0  0  0
  2 14  1  0  0  0  0
  3  4  1  0  0  0  0
  4  5  1  0  0  0  0
  5  6  1  0  0  0  0
  6  7  1  0  0  0  0
  7  8  1  0  0  0  0
  8  9  1  0  0  0  0
  9 10  1  0  0  0  0
 10 11  1  0  0  0  0
 11 12  1  0  0  0  0
 12 13  1  0  0  0  0
 14 15  2  0  0  0  0
M  END
>  <ActivityOutcome_CPDBAS_Rat>
active

>  <cdk:Formula>
[]

>  <TD50_Rat_mmol>
0.0111

>  <net.bioclipse.cdk.fingerprint>
AgAAAAABhAABAAAAABAAAEAAAAAAAAAEAQEAYAAAAAAAAAAAAAAAECAAAQAAAAAAAAAAAMAAAAAAAAAAAAAAQAAAAAAAAAGAAAAEACAAQAAAAAAAAAEAAABABCAAAUAIACAIIAAQAAAAAAAAAQAAAAgABAAACwAA

$$$$

 OpenBabel04131118512D

  8  8  0  0  0  0  0  0  0  0999 V2000
    0.0000    0.0000    0.0000 O   0  0  0  0  0  0  0  0  0  0  0  0
    0.6654   -1.1540    0.0000 N   0  0  0  0  0  0  0  0  0  0  0  0
    1.9962   -1.1540    0.0000 N   0  0  0  0  0  0  0  0  0  0  0  0
    2.6569    0.0000    0.0000 C   0  0  0  0  0  0  0  0  0  0  0  0
    3.9877    0.0000    0.0000 C   0  0  0  0  0  0  0  0  0  0  0  0
    4.6531   -1.1540    0.0000 O   0  0  0  0  0  0  0  0  0  0  0  0
    3.9877   -2.3033    0.0000 C   0  0  0  0  0  0  0  0  0  0  0  0
    2.6569   -2.3033    0.0000 C   0  0  0  0  0  0  0  0  0  0  0  0
  1  2  2  0  0  0  0
  2  3  1  0  0  0  0
  3  4  1  0  0  0  0
  3  8  1  0  0  0  0
  4  5  1  0  0  0  0
  5  6  1  0  0  0  0
  6  7  1  0  0  0  0
  7  8  1  0  0  0  0
M  END
>  <ActivityOutcome_CPDBAS_Rat>
active

>  <cdk:Formula>
[]

>  <TD50_Rat_mmol>
0.000939

>  <net.bioclipse.cdk.fingerprint>
EAABAAAAAgBAAgAAgAABAAAAAAgAAIAAAAAAAAAEAQIAYAiAAAAAAAAAAAAACCACAQAAAAAAAAAAAIAAAAAAAAAAAAAAAAAAAAAAAACAAAAAYAAAAAAAABAAAAAAAAQABCAAAAAAAAAAAAAAAAAAAAAAAAABAAAAAAAAAwAA

$$$$

 OpenBabel04131118512D

 13 14  0  0  0  0  0  0  0  0999 V2000
    2.2670    0.0000    0.0000 N   0  0  0  0  0  0  0  0  0  0  0  0
    3.5961    0.0000    0.0000 C   0  0  0  0  0  0  0  0  0  0  0  0
    4.2606   -1.1490    0.0000 C   0  0  0  0  0  0  0  0  0  0  0  0
    3.5961   -2.3042    0.0000 C   0  0  0  0  0  0  0  0  0  0  0  0
    2.2670   -2.3042    0.0000 C   0  0  0  0  0  0  0  0  0  0  0  0
    1.5962   -1.1490    0.0000 C   0  0  0  0  0  0  0  0  0  0  0  0
    1.5962   -3.4532    0.0000 C   0  0  0  0  0  0  0  0  0  0  0  0
    2.1427   -4.6705    0.0000 N   0  0  0  0  0  0  0  0  0  0  0  0
    3.4408   -4.9438    0.0000 N   0  0  0  0  0  0  0  0  0  0  0  0
    3.8507   -6.2108    0.0000 O   0  0  0  0  0  0  0  0  0  0  0  0
    1.1490   -5.5587    0.0000 C   0  0  0  0  0  0  0  0  0  0  0  0
    0.0000   -4.8941    0.0000 C   0  0  0  0  0  0  0  0  0  0  0  0
    0.2795   -3.5961    0.0000 C   0  0  0  0  0  0  0  0  0  0  0  0
  1  2  1  0  0  0  0
  1  6  2  0  0  0  0
  2  3  2  0  0  0  0
  3  4  1  0  0  0  0
  4  5  2  0  0  0  0
  5  6  1  0  0  0  0
  5  7  1  0  0  0  0
  7  8  1  0  0  0  0
  7 13  1  0  0  0  0
  8  9  1  0  0  0  0
  8 11  1  0  0  0  0
  9 10  2  0  0  0  0
 11 12  1  0  0  0  0
 12 13  1  0  0  0  0
M  END
>  <ActivityOutcome_CPDBAS_Rat>
active

>  <cdk:Formula>
[]

>  <TD50_Rat_mmol>
0.00054

>  <net.bioclipse.cdk.fingerprint>
EAAQGiCQAgACEIAcAAGAAAEgABAAEACEAgAAIAQACHSBIQBggAARkACAAQgAACQZIgAZBEBCAABAAAAAwAAAIAEIAAAAAABAIAGgAEJAAIAAgAAAIAAAABGgMAAAAIAAIEDEIgAxIggAiAAASBAEIEgQHiCAAAAEAIgAAgADsKA=

$$$$

 OpenBabel04131118512D

 14 15  0  0  0  0  0  0  0  0999 V2000
    5.5085   -1.1540    0.0000 C   0  0  0  0  0  0  0  0  0  0  0  0
    6.1727   -2.3014    0.0000 C   0  0  0  0  0  0  0  0  0  0  0  0
    5.5085   -3.4554    0.0000 C   0  0  0  0  0  0  0  0  0  0  0  0
    4.1800   -3.4554    0.0000 C   0  0  0  0  0  0  0  0  0  0  0  0
    3.5091   -2.3014    0.0000 C   0  0  0  0  0  0  0  0  0  0  0  0
    4.1800   -1.1540    0.0000 N   0  3  0  0  0  0  0  0  0  0  0  0
    3.5091    0.0000    0.0000 O   0  5  0  0  0  0  0  0  0  0  0  0
    3.5091   -4.6027    0.0000 C   0  0  0  0  0  0  0  0  0  0  0  0
    4.0525   -5.8171    0.0000 C   0  0  0  0  0  0  0  0  0  0  0  0
    3.0662   -6.7095    0.0000 C   0  0  0  0  0  0  0  0  0  0  0  0
    1.9122   -6.0453    0.0000 C   0  0  0  0  0  0  0  0  0  0  0  0
    2.1873   -4.7436    0.0000 N   0  0  0  0  0  0  0  0  0  0  0  0
    1.3016   -3.7573    0.0000 N   0  0  0  0  0  0  0  0  0  0  0  0
    0.0000   -4.0324    0.0000 O   0  0  0  0  0  0  0  0  0  0  0  0
  1  2  2  0  0  0  0
  1  6  1  0  0  0  0
  2  3  1  0  0  0  0
  3  4  2  0  0  0  0
  4  5  1  0  0  0  0
  4  8  1  0  0  0  0
  5  6  2  0  0  0  0
  6  7  1  0  0  0  0
  8  9  1  0  0  0  0
  8 12  1  0  0  0  0
  9 10  1  0  0  0  0
 10 11  1  0  0  0  0
 11 12  1  0  0  0  0
 12 13  1  0  0  0  0
 13 14  2  0  0  0  0
M  CHG  2   6   1   7  -1
M  END
>  <ActivityOutcome_CPDBAS_Rat>
active

>  <cdk:Formula>
[]

>  <TD50_Rat_mmol>
0.00453

>  <net.bioclipse.cdk.fingerprint>
EAAQGiCQAgACEIAcAAGAAAEgABAAFgCEAggAIAQACHSBIQLggAARkACAAQgAAiSZIgAZBEBCAQBABAAAwAAAIAEIAABAAEBAIAGwAEJAAIAA0AAUIAAAABGgMAAAAIAAIEDEIgAxIggAiAAASBAEIEgQHiCAAAAEAIgAAgADsKA=

$$$$

 OpenBabel04131118512D

  8  8  0  0  0  0  0  0  0  0999 V2000
    0.0000    0.0000    0.0000 O   0  0  0  0  0  0  0  0  0  0  0  0
    0.6654   -1.1540    0.0000 N   0  0  0  0  0  0  0  0  0  0  0  0
    1.9962   -1.1540    0.0000 N   0  0  0  0  0  0  0  0  0  0  0  0
    2.6569    0.0000    0.0000 C   0  0  0  0  0  0  0  0  0  0  0  0
    3.9877    0.0000    0.0000 C   0  0  0  0  0  0  0  0  0  0  0  0
    4.6531   -1.1540    0.0000 N   0  0  0  0  0  0  0  0  0  0  0  0
    2.6569   -2.3033    0.0000 C   0  0  0  0  0  0  0  0  0  0  0  0
    3.9877   -2.3033    0.0000 C   0  0  0  0  0  0  0  0  0  0  0  0
  1  2  2  0  0  0  0
  2  3  1  0  0  0  0
  3  4  1  0  0  0  0
  3  7  1  0  0  0  0
  4  5  1  0  0  0  0
  5  6  1  0  0  0  0
  6  8  1  0  0  0  0
  7  8  1  0  0  0  0
M  END
>  <ActivityOutcome_CPDBAS_Rat>
active

>  <cdk:Formula>
[]

>  <TD50_Rat_mmol>
0.0763

>  <net.bioclipse.cdk.fingerprint>
EAAAAAAAAgAAAAABgAAAAAAAAAgCAAAAAAAAAAAEAQABYAAABAAAAAAAAAAAACAAARAAAAAAAAAAAIAAAAAAAAAAAACAAAAAAAAAAACAAAAAAAAAAAAAAAAAAAAIAAAABCAAAAAEAAAAAAAAAAAAAAAAAAAAAAAAAAAgAwAA

$$$$

 OpenBabel04131118512D

  8  8  0  0  0  0  0  0  0  0999 V2000
    0.0000    0.0000    0.0000 O   0  0  0  0  0  0  0  0  0  0  0  0
    0.6654   -1.1540    0.0000 N   0  0  0  0  0  0  0  0  0  0  0  0
    1.9962   -1.1540    0.0000 N   0  0  0  0  0  0  0  0  0  0  0  0
    2.6569    0.0000    0.0000 C   0  0  0  0  0  0  0  0  0  0  0  0
    3.9877    0.0000    0.0000 C   0  0  0  0  0  0  0  0  0  0  0  0
    4.6531   -1.1540    0.0000 C   0  0  0  0  0  0  0  0  0  0  0  0
    3.9877   -2.3033    0.0000 C   0  0  0  0  0  0  0  0  0  0  0  0
    2.6569   -2.3033    0.0000 C   0  0  0  0  0  0  0  0  0  0  0  0
  1  2  2  0  0  0  0
  2  3  1  0  0  0  0
  3  4  1  0  0  0  0
  3  8  1  0  0  0  0
  4  5  1  0  0  0  0
  5  6  1  0  0  0  0
  6  7  1  0  0  0  0
  7  8  1  0  0  0  0
M  END
>  <ActivityOutcome_CPDBAS_Rat>
active

>  <cdk:Formula>
[]

>  <TD50_Rat_mmol>
0.0125

>  <net.bioclipse.cdk.fingerprint>
EAAAAAAAAgAAAAABgAABAAAAABAAAAAAAAAAAAAEAQEAYAAAAAAAAAAAAAAAECAAEQAAAAAAAAAAAMAAAAAAAAAAAAAAQAAAAAAAAACAAAAAACAAQAAAAAAAAAAAAABABCAAAQAIAAAAAAAQAAAAAAAAAAAAAAAAAAAAAwAA

$$$$

 OpenBabel04131118512D

  7  7  0  0  0  0  0  0  0  0999 V2000
    0.0000   -1.5998    0.0000 O   0  0  0  0  0  0  0  0  0  0  0  0
    1.1503   -2.2653    0.0000 N   0  0  0  0  0  0  0  0  0  0  0  0
    2.3050   -1.5998    0.0000 N   0  0  0  0  0  0  0  0  0  0  0  0
    2.4416   -0.2777    0.0000 C   0  0  0  0  0  0  0  0  0  0  0  0
    3.7417    0.0000    0.0000 C   0  0  0  0  0  0  0  0  0  0  0  0
    4.4072   -1.1547    0.0000 C   0  0  0  0  0  0  0  0  0  0  0  0
    3.5169   -2.1419    0.0000 C   0  0  0  0  0  0  0  0  0  0  0  0
  1  2  2  0  0  0  0
  2  3  1  0  0  0  0
  3  4  1  0  0  0  0
  3  7  1  0  0  0  0
  4  5  1  0  0  0  0
  5  6  1  0  0  0  0
  6  7  1  0  0  0  0
M  END
>  <ActivityOutcome_CPDBAS_Rat>
active

>  <cdk:Formula>
[]

>  <TD50_Rat_mmol>
0.00798

>  <net.bioclipse.cdk.fingerprint>
EAAAAAAAAgAAAAABgAABAAAAABAAAAAAAAAAAAAEAQAAYAAAAAAAAAAAAAAAECAAAQAAAAAAAAAAAMAAAAAAAAAAAAAAQAAAAAAAAACAAAAAACAAAAAAAAAAAAAAAAAABCAAAAAIAAAAAAAQAAAAAAAAAAAAAAAAAAAAAwAA

$$$$

 OpenBabel04131118512D

 11 11  0  0  0  0  0  0  0  0999 V2000
    1.9918    0.0000    0.0000 C   0  0  0  0  0  0  0  0  0  0  0  0
    2.6558   -1.1544    0.0000 C   0  0  0  0  0  0  0  0  0  0  0  0
    3.9896   -1.1544    0.0000 S   0  0  0  0  0  0  0  0  0  0  0  0
    4.6536   -2.3029    0.0000 C   0  0  0  0  0  0  0  0  0  0  0  0
    3.9896   -3.4573    0.0000 S   0  0  0  0  0  0  0  0  0  0  0  0
    2.6558   -3.4573    0.0000 C   0  0  0  0  0  0  0  0  0  0  0  0
    1.9918   -2.3029    0.0000 N   0  0  0  0  0  0  0  0  0  0  0  0
    0.6639   -2.3029    0.0000 N   0  0  0  0  0  0  0  0  0  0  0  0
    0.0000   -3.4573    0.0000 O   0  0  0  0  0  0  0  0  0  0  0  0
    1.9918   -4.6057    0.0000 C   0  0  0  0  0  0  0  0  0  0  0  0
    5.9814   -2.3029    0.0000 C   0  0  0  0  0  0  0  0  0  0  0  0
  1  2  1  0  0  0  0
  2  3  1  0  0  0  0
  2  7  1  0  0  0  0
  3  4  1  0  0  0  0
  4  5  1  0  0  0  0
  4 11  1  0  0  0  0
  5  6  1  0  0  0  0
  6  7  1  0  0  0  0
  6 10  1  0  0  0  0
  7  8  1  0  0  0  0
  8  9  2  0  0  0  0
M  END
>  <ActivityOutcome_CPDBAS_Rat>
active

>  <cdk:Formula>
[]

>  <TD50_Rat_mmol>
0.00251

>  <net.bioclipse.cdk.fingerprint>
EgACAAAiAgAAAACAgAAAAAAAAAQAAAAAAQAABAAEQYABbAAACAQACAAAACAAgCAAgxAAAAAAIAAABIAAAMAAAAAAAAAAAAAAAAAAAACAAEAAAIAFAICAAAAAAAIAAAAABCAAAAAAAgAAEIAAAAAAIwAAIAAAAAAAIgAAAwAA

$$$$

 OpenBabel04131118512D

  8  8  0  0  0  0  0  0  0  0999 V2000
    0.0000    0.0000    0.0000 O   0  0  0  0  0  0  0  0  0  0  0  0
    0.6654   -1.1540    0.0000 N   0  0  0  0  0  0  0  0  0  0  0  0
    1.9962   -1.1540    0.0000 N   0  0  0  0  0  0  0  0  0  0  0  0
    2.6569    0.0000    0.0000 C   0  0  0  0  0  0  0  0  0  0  0  0
    3.9877    0.0000    0.0000 C   0  0  0  0  0  0  0  0  0  0  0  0
    4.6531   -1.1540    0.0000 S   0  0  0  0  0  0  0  0  0  0  0  0
    3.9877   -2.3033    0.0000 C   0  0  0  0  0  0  0  0  0  0  0  0
    2.6569   -2.3033    0.0000 C   0  0  0  0  0  0  0  0  0  0  0  0
  1  2  2  0  0  0  0
  2  3  1  0  0  0  0
  3  4  1  0  0  0  0
  3  8  1  0  0  0  0
  4  5  1  0  0  0  0
  5  6  1  0  0  0  0
  6  7  1  0  0  0  0
  7  8  1  0  0  0  0
M  END
>  <ActivityOutcome_CPDBAS_Rat>
active

>  <cdk:Formula>
[]

>  <TD50_Rat_mmol>
0.0408

>  <net.bioclipse.cdk.fingerprint>
EAAAAAACAgAAAAAAgAAAAAAAAAAAAAAAAAAAAAAEAQABYAAAAAQAACAAAAAAACAEAQgAAQAAAAIAAIAAAAAAAAAAAAAAAAAAABAAAACAAAAQAIAAAAAAQAAAAAAAAAgABCAAAAAAAAAAAIAAAAAIIAAAAAAAAAAAAgAAAwAB

$$$$

 OpenBabel04131118512D

  9  9  0  0  0  0  0  0  0  0999 V2000
    2.6588    0.0000    0.0000 C   0  0  0  0  0  0  0  0  0  0  0  0
    1.9976   -1.1501    0.0000 C   0  0  0  0  0  0  0  0  0  0  0  0
    2.6588   -2.3049    0.0000 C   0  0  0  0  0  0  0  0  0  0  0  0
    1.9976   -3.4550    0.0000 C   0  0  0  0  0  0  0  0  0  0  0  0
    0.6659   -3.4550    0.0000 C   0  0  0  0  0  0  0  0  0  0  0  0
    0.0000   -2.3049    0.0000 C   0  0  0  0  0  0  0  0  0  0  0  0
    0.6659   -1.1501    0.0000 C   0  0  0  0  0  0  0  0  0  0  0  0
    3.9905   -2.3049    0.0000 N   0  0  0  0  0  0  0  0  0  0  0  0
    4.6563   -3.4550    0.0000 O   0  0  0  0  0  0  0  0  0  0  0  0
  1  2  1  0  0  0  0
  2  3  2  0  0  0  0
  2  7  1  0  0  0  0
  3  4  1  0  0  0  0
  3  8  1  0  0  0  0
  4  5  2  0  0  0  0
  5  6  1  0  0  0  0
  6  7  2  0  0  0  0
  8  9  2  0  0  0  0
M  END
>  <ActivityOutcome_CPDBAS_Rat>
active

>  <cdk:Formula>
[]

>  <TD50_Rat_mmol>
0.419

>  <net.bioclipse.cdk.fingerprint>
AgAAIgAAAAAAAAAAAAAAAAAYQAAAAAAABAACAAAAYAAEAAAAAAAAAAAAAGAAAAAAAAAAQAQAAAAAAAAABAABAAAAAAAAAAAAAAAAAAAAAAAAAAAAgAAAAACAACAABABAIAAAAAAgAkAAAAAAAAAAgAAAAAAAAAAAAhAA

$$$$

 OpenBabel04131118512D

 10 10  0  0  0  0  0  0  0  0999 V2000
    3.9896   -2.3044    0.0000 N   0  3  0  0  0  0  0  0  0  0  0  0
    4.6553   -3.4542    0.0000 O   0  0  0  0  0  0  0  0  0  0  0  0
    4.6553   -1.1499    0.0000 O   0  5  0  0  0  0  0  0  0  0  0  0
    2.6582   -2.3044    0.0000 C   0  0  0  0  0  0  0  0  0  0  0  0
    1.9971   -3.4542    0.0000 C   0  0  0  0  0  0  0  0  0  0  0  0
    0.6657   -3.4542    0.0000 C   0  0  0  0  0  0  0  0  0  0  0  0
    0.0000   -2.3044    0.0000 C   0  0  0  0  0  0  0  0  0  0  0  0
    0.6657   -1.1499    0.0000 C   0  0  0  0  0  0  0  0  0  0  0  0
    1.9971   -1.1499    0.0000 C   0  0  0  0  0  0  0  0  0  0  0  0
    2.6582    0.0000    0.0000 C   0  0  0  0  0  0  0  0  0  0  0  0
  1  2  2  0  0  0  0
  1  3  1  0  0  0  0
  1  4  1  0  0  0  0
  4  5  2  0  0  0  0
  4  9  1  0  0  0  0
  5  6  1  0  0  0  0
  6  7  2  0  0  0  0
  7  8  1  0  0  0  0
  8  9  2  0  0  0  0
  9 10  1  0  0  0  0
M  CHG  2   1   1   3  -1
M  END
>  <ActivityOutcome_CPDBAS_Rat>
active

>  <cdk:Formula>
[]

>  <TD50_Rat_mmol>
0.034

>  <net.bioclipse.cdk.fingerprint>
EAIAACIAIAgAAAAAAAgAAAAAGEAAAAAAAAQABgAAAGAABAAAAAAAAAgAAABgAAAAAgAAAEAEAAAAAAAAAAQAAQAAAAAAAAAAAACAAAAAAAAAAAAAAIAAAAAQgAAgAAQAQCAAAABAIAJAAAAAAAAAAIAAAAAAAAAAAAIQAA==

$$$$

 OpenBabel04131118512D

 10 10  0  0  0  0  0  0  0  0999 V2000
    3.3279   -2.4780    0.0000 C   0  0  0  0  0  0  0  0  0  0  0  0
    1.9991   -2.4780    0.0000 C   0  0  0  0  0  0  0  0  0  0  0  0
    3.9863   -1.3228    0.0000 C   0  0  0  0  0  0  0  0  0  0  0  0
    1.3288   -1.3228    0.0000 C   0  0  0  0  0  0  0  0  0  0  0  0
    1.9991   -0.1915    0.0000 C   0  0  0  0  0  0  0  0  0  0  0  0
    0.0000   -1.3228    0.0000 C   0  0  0  0  0  0  0  0  0  0  0  0
    3.3279   -0.1915    0.0000 C   0  0  0  0  0  0  0  0  0  0  0  0
    5.3150   -1.3228    0.0000 N   0  3  0  0  0  0  0  0  0  0  0  0
    5.9854   -2.4780    0.0000 O   0  0  0  0  0  0  0  0  0  0  0  0
    5.6323    0.0000    0.0000 O   0  5  0  0  0  0  0  0  0  0  0  0
  1  2  2  0  0  0  0
  1  3  1  0  0  0  0
  2  4  1  0  0  0  0
  3  7  2  0  0  0  0
  3  8  1  0  0  0  0
  4  5  2  0  0  0  0
  4  6  1  0  0  0  0
  5  7  1  0  0  0  0
  8  9  2  0  0  0  0
  8 10  1  0  0  0  0
M  CHG  2   8   1  10  -1
M  END
>  <ActivityOutcome_CPDBAS_Rat>
active

>  <cdk:Formula>
[]

>  <TD50_Rat_mmol>
1.87

>  <net.bioclipse.cdk.fingerprint>
EAIAACAAAAgAAAAAAAgAAAAAGEEAAABAAAQABgAAAGAABAAAAAAAAAAAAAAgAAAAAgAAAEAEAAAAAAAAAAQAAAAAAAAAAAAAAACAAAAAAAAAAAAAAIAAAAAQgAAgAAQAQCAAAABAIAJAgAAAAAAAAIAAAAAAAAAAAAIQAA==

$$$$

 OpenBabel04131118512D

 28 30  0  0  0  0  0  0  0  0999 V2000
   10.3725   -2.6589    0.0000 C   0  0  0  0  0  0  0  0  0  0  0  0
    8.0598   -2.6589    0.0000 C   0  0  0  0  0  0  0  0  0  0  0  0
   11.5220   -1.9942    0.0000 C   0  0  0  0  0  0  0  0  0  0  0  0
    9.2093   -1.9942    0.0000 C   0  0  0  0  0  0  0  0  0  0  0  0
   10.3725   -3.9745    0.0000 C   0  0  0  0  0  0  0  0  0  0  0  0
    6.9243   -1.9942    0.0000 C   0  0  0  0  0  0  0  0  0  0  0  0
    8.0598   -3.9745    0.0000 C   0  0  0  0  0  0  0  0  0  0  0  0
   12.6714   -2.6589    0.0000 O   0  0  0  0  0  0  0  0  0  0  0  0
    9.2093   -4.6393    0.0000 C   0  0  0  0  0  0  0  0  0  0  0  0
    5.7610   -2.6589    0.0000 N   0  0  0  0  0  0  0  0  0  0  0  0
    4.6116   -1.9942    0.0000 C   0  0  2  0  0  0  0  0  0  0  0  0
    4.6116   -0.6647    0.0000 C   0  0  0  0  0  0  0  0  0  0  0  0
   11.5220   -4.6393    0.0000 C   0  0  0  0  0  0  0  0  0  0  0  0
   11.5220   -0.6647    0.0000 O   0  0  0  0  0  0  0  0  0  0  0  0
    6.9243   -0.6647    0.0000 O   0  0  0  0  0  0  0  0  0  0  0  0
   12.6714   -3.9745    0.0000 C   0  0  1  0  0  0  0  0  0  0  0  0
    3.4483   -2.6589    0.0000 C   0  0  0  0  0  0  0  0  0  0  0  0
    3.4621    0.0000    0.0000 O   0  0  0  0  0  0  0  0  0  0  0  0
    9.2093   -0.6647    0.0000 O   0  0  0  0  0  0  0  0  0  0  0  0
    9.2093   -5.9687    0.0000 Cl  0  0  0  0  0  0  0  0  0  0  0  0
    5.7748    0.0000    0.0000 O   0  0  0  0  0  0  0  0  0  0  0  0
    2.3127   -1.9942    0.0000 C   0  0  0  0  0  0  0  0  0  0  0  0
   13.8485   -4.6531    0.0000 C   0  0  0  0  0  0  0  0  0  0  0  0
    1.1633   -2.6589    0.0000 C   0  0  0  0  0  0  0  0  0  0  0  0
    2.3127   -0.6647    0.0000 C   0  0  0  0  0  0  0  0  0  0  0  0
    1.1633    0.0000    0.0000 C   0  0  0  0  0  0  0  0  0  0  0  0
    0.0000   -1.9942    0.0000 C   0  0  0  0  0  0  0  0  0  0  0  0
    0.0000   -0.6647    0.0000 C   0  0  0  0  0  0  0  0  0  0  0  0
  1  3  1  0  0  0  0
  1  4  1  0  0  0  0
  1  5  2  0  0  0  0
  2  4  2  0  0  0  0
  2  6  1  0  0  0  0
  2  7  1  0  0  0  0
  3  8  1  0  0  0  0
  3 14  2  0  0  0  0
  4 19  1  0  0  0  0
  5  9  1  0  0  0  0
  5 13  1  0  0  0  0
  6 10  1  0  0  0  0
  6 15  2  0  0  0  0
  7  9  2  0  0  0  0
  8 16  1  0  0  0  0
  9 20  1  0  0  0  0
 10 11  1  0  0  0  0
 11 12  1  1  0  0  0
 11 17  1  0  0  0  0
 12 18  2  0  0  0  0
 12 21  1  0  0  0  0
 13 16  1  0  0  0  0
 16 23  1  6  0  0  0
 17 22  1  0  0  0  0
 22 24  2  0  0  0  0
 22 25  1  0  0  0  0
 24 27  1  0  0  0  0
 25 26  2  0  0  0  0
 26 28  1  0  0  0  0
 27 28  2  0  0  0  0
M  END
>  <ActivityOutcome_CPDBAS_Rat>
active

>  <cdk:Formula>
[]

>  <TD50_Rat_mmol>
0.000337

>  <net.bioclipse.cdk.fingerprint>
AIuEmESAEAGAQxaCEqABCRAAKUUIgIACyOA2EACAACxsXAAi6QCAKJTIABAEBMBB+DBG0KQaIQAgQBDmKMBACTOAHixEAAQAAQwAAhgiEASwAAIQQKCAgEABgxAEQCqSoCAISA3BZaQCagAgWkAYBAnMoJ4IiVYZRCgBESQAAkAA

$$$$

 OpenBabel04131118512D

 24 26  0  0  0  0  0  0  0  0999 V2000
    8.6485   -4.6107    0.0000 O   0  0  0  0  0  0  0  0  0  0  0  0
    7.9919   -3.4650    0.0000 S   0  0  0  0  0  0  0  0  0  0  0  0
    6.6506   -3.4650    0.0000 C   0  0  0  0  0  0  0  0  0  0  0  0
    5.8682   -2.3892    0.0000 N   0  0  0  0  0  0  0  0  0  0  0  0
    4.6107   -2.7944    0.0000 C   0  0  0  0  0  0  0  0  0  0  0  0
    4.6107   -4.1217    0.0000 C   0  0  0  0  0  0  0  0  0  0  0  0
    3.4510   -4.7923    0.0000 C   0  0  0  0  0  0  0  0  0  0  0  0
    2.3053   -4.1217    0.0000 C   0  0  0  0  0  0  0  0  0  0  0  0
    2.3053   -2.7944    0.0000 C   0  0  0  0  0  0  0  0  0  0  0  0
    3.4510   -2.1377    0.0000 C   0  0  0  0  0  0  0  0  0  0  0  0
    1.1457   -2.1377    0.0000 O   0  0  0  0  0  0  0  0  0  0  0  0
    0.0000   -2.7944    0.0000 C   0  0  0  0  0  0  0  0  0  0  0  0
    5.8682   -4.5408    0.0000 N   0  0  0  0  0  0  0  0  0  0  0  0
    8.6485   -2.3053    0.0000 C   0  0  0  0  0  0  0  0  0  0  0  0
    9.9759   -2.3053    0.0000 C   0  0  0  0  0  0  0  0  0  0  0  0
   10.6465   -1.1597    0.0000 C   0  0  0  0  0  0  0  0  0  0  0  0
   11.9738   -1.1597    0.0000 C   0  0  0  0  0  0  0  0  0  0  0  0
   12.6445   -2.3053    0.0000 C   0  0  0  0  0  0  0  0  0  0  0  0
   11.9738   -3.4650    0.0000 C   0  0  0  0  0  0  0  0  0  0  0  0
   10.6465   -3.4650    0.0000 N   0  0  0  0  0  0  0  0  0  0  0  0
   13.9718   -2.3053    0.0000 C   0  0  0  0  0  0  0  0  0  0  0  0
   12.6445    0.0000    0.0000 O   0  0  0  0  0  0  0  0  0  0  0  0
   13.9718    0.0000    0.0000 C   0  0  0  0  0  0  0  0  0  0  0  0
    9.9759    0.0000    0.0000 C   0  0  0  0  0  0  0  0  0  0  0  0
  1  2  2  0  0  0  0
  2  3  1  0  0  0  0
  2 14  1  0  0  0  0
  3  4  2  0  0  0  0
  3 13  1  0  0  0  0
  4  5  1  0  0  0  0
  5  6  2  0  0  0  0
  5 10  1  0  0  0  0
  6  7  1  0  0  0  0
  6 13  1  0  0  0  0
  7  8  2  0  0  0  0
  8  9  1  0  0  0  0
  9 10  2  0  0  0  0
  9 11  1  0  0  0  0
 11 12  1  0  0  0  0
 14 15  1  0  0  0  0
 15 16  2  0  0  0  0
 15 20  1  0  0  0  0
 16 17  1  0  0  0  0
 16 24  1  0  0  0  0
 17 18  2  0  0  0  0
 17 22  1  0  0  0  0
 18 19  1  0  0  0  0
 18 21  1  0  0  0  0
 19 20  2  0  0  0  0
 22 23  1  0  0  0  0
M  END
>  <ActivityOutcome_CPDBAS_Rat>
active

>  <cdk:Formula>
[]

>  <TD50_Rat_mmol>
0.345

>  <net.bioclipse.cdk.fingerprint>
AICgEQYikToFZAiwL4AQCCEALAgQACAMQMAgAAAQxIgEgAQTYYwAEKSAgAgAACRACDEAKKEICoAAwBAGA0ABAAoJOhBQFAA1wQoBBJcAQIDAApAAALAgwJFwiSFADICpACBAwBDgZaogSCQCAsAAmRQAZUgQpBAQDADBCAgA4KBC

$$$$

 OpenBabel04131118512D

 18 20  0  0  0  0  0  0  0  0999 V2000
    5.7635   -1.7600    0.0000 C   0  0  0  0  0  0  0  0  0  0  0  0
    7.0207   -1.3538    0.0000 C   0  0  0  0  0  0  0  0  0  0  0  0
    7.8040   -2.4273    0.0000 C   0  0  0  0  0  0  0  0  0  0  0  0
    9.1288   -2.2919    0.0000 C   0  0  0  0  0  0  0  0  0  0  0  0
    9.6703   -1.0734    0.0000 C   0  0  0  0  0  0  0  0  0  0  0  0
    8.8870    0.0000    0.0000 C   0  0  0  0  0  0  0  0  0  0  0  0
    7.5622   -0.1354    0.0000 C   0  0  0  0  0  0  0  0  0  0  0  0
    7.0207   -3.5007    0.0000 C   0  0  0  0  0  0  0  0  0  0  0  0
    5.7635   -3.0945    0.0000 C   0  0  0  0  0  0  0  0  0  0  0  0
    4.6031   -3.7521    0.0000 C   0  0  0  0  0  0  0  0  0  0  0  0
    3.4523   -3.0945    0.0000 C   0  0  0  0  0  0  0  0  0  0  0  0
    3.4523   -1.7600    0.0000 C   0  0  0  0  0  0  0  0  0  0  0  0
    4.6031   -1.0927    0.0000 C   0  0  0  0  0  0  0  0  0  0  0  0
    2.3015   -3.7521    0.0000 N   0  0  0  0  0  0  0  0  0  0  0  0
    1.1508   -3.0945    0.0000 C   0  0  0  0  0  0  0  0  0  0  0  0
    0.0000   -3.7521    0.0000 C   0  0  0  0  0  0  0  0  0  0  0  0
    1.1508   -1.7600    0.0000 O   0  0  0  0  0  0  0  0  0  0  0  0
    7.4365   -4.7675    0.0000 O   0  0  0  0  0  0  0  0  0  0  0  0
  1  2  1  0  0  0  0
  1  9  1  0  0  0  0
  1 13  2  0  0  0  0
  2  3  2  0  0  0  0
  2  7  1  0  0  0  0
  3  4  1  0  0  0  0
  3  8  1  0  0  0  0
  4  5  2  0  0  0  0
  5  6  1  0  0  0  0
  6  7  2  0  0  0  0
  8  9  1  0  0  0  0
  8 18  2  0  0  0  0
  9 10  2  0  0  0  0
 10 11  1  0  0  0  0
 11 12  2  0  0  0  0
 11 14  1  0  0  0  0
 12 13  1  0  0  0  0
 14 15  1  0  0  0  0
 15 16  1  0  0  0  0
 15 17  2  0  0  0  0
M  END
>  <ActivityOutcome_CPDBAS_Rat>
active

>  <cdk:Formula>
[]

>  <TD50_Rat_mmol>
0.026

>  <net.bioclipse.cdk.fingerprint>
AIQAAAApICIFgAAAgCgBMAkAIAIQQEFBAAAAAgzEAxgAAGkgQRAEAIAAAAYAAoSgAAQAAgCGAEABAADAhAkAwAUMwACAAUAAAAAARIAg0AgAEADAAIAAAIAgAgAIgAAgYEkAQGQAQAAhQAJgAQ0ACAQUCoDQCsEYiAgEAAIQAA==

$$$$

 OpenBabel04131118512D

 19 21  0  0  0  0  0  0  0  0999 V2000
    5.4994   -5.9830    0.0000 O   0  0  0  0  0  0  0  0  0  0  0  0
    5.4994   -4.6574    0.0000 C   0  0  0  0  0  0  0  0  0  0  0  0
    4.3529   -3.9857    0.0000 C   0  0  0  0  0  0  0  0  0  0  0  0
    3.1975   -4.6574    0.0000 C   0  0  0  0  0  0  0  0  0  0  0  0
    2.0421   -3.9857    0.0000 C   0  0  0  0  0  0  0  0  0  0  0  0
    2.0421   -2.6601    0.0000 C   0  0  0  0  0  0  0  0  0  0  0  0
    3.1975   -1.9973    0.0000 C   0  0  0  0  0  0  0  0  0  0  0  0
    4.3529   -2.6601    0.0000 C   0  0  0  0  0  0  0  0  0  0  0  0
    5.4994   -1.9973    0.0000 N   0  0  0  0  0  0  0  0  0  0  0  0
    6.6548   -2.6601    0.0000 C   0  0  0  0  0  0  0  0  0  0  0  0
    6.6548   -3.9857    0.0000 C   0  0  0  0  0  0  0  0  0  0  0  0
    7.8012   -4.6574    0.0000 C   0  0  0  0  0  0  0  0  0  0  0  0
    7.8012   -5.9830    0.0000 O   0  0  0  0  0  0  0  0  0  0  0  0
    8.9566   -3.9857    0.0000 O   0  0  0  0  0  0  0  0  0  0  0  0
    5.4994   -0.6628    0.0000 C   0  0  0  0  0  0  0  0  0  0  0  0
    6.6548    0.0000    0.0000 C   0  0  0  0  0  0  0  0  0  0  0  0
    0.7792   -2.2481    0.0000 O   0  0  0  0  0  0  0  0  0  0  0  0
    0.0000   -3.3229    0.0000 C   0  0  0  0  0  0  0  0  0  0  0  0
    0.7792   -4.3977    0.0000 O   0  0  0  0  0  0  0  0  0  0  0  0
  1  2  2  0  0  0  0
  2  3  1  0  0  0  0
  2 11  1  0  0  0  0
  3  4  2  0  0  0  0
  3  8  1  0  0  0  0
  4  5  1  0  0  0  0
  5  6  2  0  0  0  0
  5 19  1  0  0  0  0
  6  7  1  0  0  0  0
  6 17  1  0  0  0  0
  7  8  2  0  0  0  0
  8  9  1  0  0  0  0
  9 10  1  0  0  0  0
  9 15  1  0  0  0  0
 10 11  2  0  0  0  0
 11 12  1  0  0  0  0
 12 13  2  0  0  0  0
 12 14  1  0  0  0  0
 15 16  1  0  0  0  0
 17 18  1  0  0  0  0
 18 19  1  0  0  0  0
M  END
>  <ActivityOutcome_CPDBAS_Rat>
active

>  <cdk:Formula>
[]

>  <TD50_Rat_mmol>
0.639

>  <net.bioclipse.cdk.fingerprint>
QAuyGACATGIqx1KjAAgAgYgCAigFQEChAAJCTCRGasg0CnkIAA7EiAAIkCBiBJBoBPQgUBIaAGAAICLERQQAQHaYBAUKAEJGEAYEIIAAkAQRCAIQARAAALAREAAWgADgAELQQCCkYAISEDpsmoSjEhAdQIxyOFQggPJFIGoYRA==

$$$$

 OpenBabel04131118512D

 15 16  0  0  0  0  0  0  0  0999 V2000
    9.2080   -2.6611    0.0000 N   0  0  0  0  0  0  0  0  0  0  0  0
    8.0570   -1.9981    0.0000 C   0  0  0  0  0  0  0  0  0  0  0  0
    6.9060   -2.6611    0.0000 C   0  0  0  0  0  0  0  0  0  0  0  0
    5.7550   -1.9981    0.0000 C   0  0  0  0  0  0  0  0  0  0  0  0
    5.7550   -0.6630    0.0000 C   0  0  0  0  0  0  0  0  0  0  0  0
    6.9060    0.0000    0.0000 C   0  0  0  0  0  0  0  0  0  0  0  0
    8.0570   -0.6630    0.0000 C   0  0  0  0  0  0  0  0  0  0  0  0
    4.6040    0.0000    0.0000 O   0  0  0  0  0  0  0  0  0  0  0  0
    3.4530   -0.6630    0.0000 C   0  0  0  0  0  0  0  0  0  0  0  0
    3.4530   -1.9981    0.0000 C   0  0  0  0  0  0  0  0  0  0  0  0
    2.3020   -2.6611    0.0000 C   0  0  0  0  0  0  0  0  0  0  0  0
    1.1510   -1.9981    0.0000 C   0  0  0  0  0  0  0  0  0  0  0  0
    1.1510   -0.6630    0.0000 C   0  0  0  0  0  0  0  0  0  0  0  0
    2.3020    0.0000    0.0000 C   0  0  0  0  0  0  0  0  0  0  0  0
    0.0000   -2.6611    0.0000 N   0  0  0  0  0  0  0  0  0  0  0  0
  1  2  1  0  0  0  0
  2  3  2  0  0  0  0
  2  7  1  0  0  0  0
  3  4  1  0  0  0  0
  4  5  2  0  0  0  0
  5  6  1  0  0  0  0
  5  8  1  0  0  0  0
  6  7  2  0  0  0  0
  8  9  1  0  0  0  0
  9 10  2  0  0  0  0
  9 14  1  0  0  0  0
 10 11  1  0  0  0  0
 11 12  2  0  0  0  0
 12 13  1  0  0  0  0
 12 15  1  0  0  0  0
 13 14  2  0  0  0  0
M  END
>  <ActivityOutcome_CPDBAS_Rat>
active

>  <cdk:Formula>
[]

>  <TD50_Rat_mmol>
0.0475

>  <net.bioclipse.cdk.fingerprint>
IACAAgAAAAAAAAAAAoAAQIAAAAAABAACAAACYUAAAAQAAAAAAAAAAAgAACAAAAAAQAAAAAAAAAAAApQAAAAAAAAAAAQAAACAAAEAAAAAAAAAAAIAAAAAACAAAAEAICAgAAAAAgAAAAAAAAAAgAAAAAAAAAAAIhAA

$$$$

 OpenBabel04131118512D

 15 16  0  0  0  0  0  0  0  0999 V2000
    4.6510   -3.4580    0.0000 S   0  0  0  0  0  0  0  0  0  0  0  0
    3.9940   -2.3082    0.0000 C   0  0  0  0  0  0  0  0  0  0  0  0
    2.6626   -2.3082    0.0000 N   0  0  0  0  0  0  0  0  0  0  0  0
    1.9970   -3.4580    0.0000 C   0  0  0  0  0  0  0  0  0  0  0  0
    0.6657   -3.4580    0.0000 C   0  0  0  0  0  0  0  0  0  0  0  0
    0.0000   -2.3082    0.0000 O   0  0  0  0  0  0  0  0  0  0  0  0
    0.6657   -1.1584    0.0000 C   0  0  0  0  0  0  0  0  0  0  0  0
    1.9970   -1.1584    0.0000 C   0  0  0  0  0  0  0  0  0  0  0  0
    4.6510   -1.1584    0.0000 S   0  0  0  0  0  0  0  0  0  0  0  0
    5.9823   -1.1584    0.0000 N   0  0  0  0  0  0  0  0  0  0  0  0
    6.6480    0.0000    0.0000 C   0  0  0  0  0  0  0  0  0  0  0  0
    7.9793    0.0000    0.0000 C   0  0  0  0  0  0  0  0  0  0  0  0
    8.6450   -1.1584    0.0000 O   0  0  0  0  0  0  0  0  0  0  0  0
    7.9793   -2.3082    0.0000 C   0  0  0  0  0  0  0  0  0  0  0  0
    6.6480   -2.3082    0.0000 C   0  0  0  0  0  0  0  0  0  0  0  0
  1  2  2  0  0  0  0
  2  3  1  0  0  0  0
  2  9  1  0  0  0  0
  3  4  1  0  0  0  0
  3  8  1  0  0  0  0
  4  5  1  0  0  0  0
  5  6  1  0  0  0  0
  6  7  1  0  0  0  0
  7  8  1  0  0  0  0
  9 10  1  0  0  0  0
 10 11  1  0  0  0  0
 10 15  1  0  0  0  0
 11 12  1  0  0  0  0
 12 13  1  0  0  0  0
 13 14  1  0  0  0  0
 14 15  1  0  0  0  0
M  END
>  <ActivityOutcome_CPDBAS_Rat>
active

>  <cdk:Formula>
[]

>  <TD50_Rat_mmol>
0.366

>  <net.bioclipse.cdk.fingerprint>
AICQAAEgAACCACACAAAAAgUAEEQgAAAEggBAgAAAABAACgFgWIAABAAAIAAADCAIIAICAAGAAAAACAAAgAABgAAAAwAAAAAAQQAAAAAAAYAAAABCgAIAAAAQEAAAQAAAABAAAAAAAMABAAAAAAAAAAACCAAAIAEAAAABgQACAAA=

$$$$

 OpenBabel04131118512D

 24 27  0  0  0  0  0  0  0  0999 V2000
    4.6045   -3.9468    0.0000 C   0  0  1  0  0  0  0  0  0  0  0  0
    8.0633   -1.9415    0.0000 C   0  0  1  0  0  0  0  0  0  0  0  0
    5.7292   -3.2996    0.0000 C   0  0  0  0  0  0  0  0  0  0  0  0
    8.0633   -3.2996    0.0000 C   0  0  0  0  0  0  0  0  0  0  0  0
    2.3023   -3.9574    0.0000 C   0  0  0  0  0  0  0  0  0  0  0  0
    6.9068   -3.9574    0.0000 C   0  0  0  0  0  0  0  0  0  0  0  0
    3.4481   -3.2996    0.0000 C   0  0  0  0  0  0  0  0  0  0  0  0
    4.6045   -5.2836    0.0000 C   0  0  0  0  0  0  0  0  0  0  0  0
    2.2917   -5.2729    0.0000 C   0  0  0  0  0  0  0  0  0  0  0  0
    9.3258   -1.5596    0.0000 C   0  0  2  0  0  0  0  0  0  0  0  0
    6.8856   -1.2944    0.0000 C   0  0  0  0  0  0  0  0  0  0  0  0
    5.7292   -1.9415    0.0000 C   0  0  0  0  0  0  0  0  0  0  0  0
    3.4481   -5.9626    0.0000 C   0  0  0  0  0  0  0  0  0  0  0  0
    9.3258   -3.7027    0.0000 C   0  0  0  0  0  0  0  0  0  0  0  0
    6.9068   -5.2836    0.0000 C   0  0  0  0  0  0  0  0  0  0  0  0
    1.1458   -3.2890    0.0000 C   0  0  0  0  0  0  0  0  0  0  0  0
    5.7292   -5.9626    0.0000 C   0  0  0  0  0  0  0  0  0  0  0  0
   10.0897   -2.6206    0.0000 C   0  0  0  0  0  0  0  0  0  0  0  0
    1.1458   -5.9414    0.0000 O   0  0  0  0  0  0  0  0  0  0  0  0
    4.6045   -2.6206    0.0000 C   0  0  0  0  0  0  0  0  0  0  0  0
    9.3895    0.0000    0.0000 O   0  0  0  0  0  0  0  0  0  0  0  0
    8.0845   -0.5517    0.0000 C   0  0  0  0  0  0  0  0  0  0  0  0
    0.0000   -3.9574    0.0000 O   0  0  0  0  0  0  0  0  0  0  0  0
   10.6096   -1.3050    0.0000 C   0  0  0  0  0  0  0  0  0  0  0  0
  1  3  1  0  0  0  0
  1  7  1  0  0  0  0
  1  8  1  0  0  0  0
  1 20  1  1  0  0  0
  2 11  1  0  0  0  0
  2 10  1  0  0  0  0
  2 22  1  1  0  0  0
  2  4  1  0  0  0  0
  3  6  1  0  0  0  0
  3 12  1  0  0  0  0
  4  6  1  0  0  0  0
  4 14  1  0  0  0  0
  5  7  1  0  0  0  0
  5 16  2  0  0  0  0
  5  9  1  0  0  0  0
  6 15  1  0  0  0  0
  8 13  1  0  0  0  0
  8 17  1  0  0  0  0
  9 13  1  0  0  0  0
  9 19  2  0  0  0  0
 10 21  1  1  0  0  0
 10 24  1  6  0  0  0
 10 18  1  0  0  0  0
 11 12  1  0  0  0  0
 14 18  1  0  0  0  0
 15 17  1  0  0  0  0
 16 23  1  0  0  0  0
M  END
>  <ActivityOutcome_CPDBAS_Rat>
active

>  <cdk:Formula>
[]

>  <TD50_Rat_mmol>
0.201

>  <net.bioclipse.cdk.fingerprint>
QAAAAAAAAAAAAAIRAAQAAAAIAAAEBABAAAAAAAAAAAERCGAAAAAAAAAAACAQABAgECAAACAQAAAAACJAQAAAAAAAAAEAAAAAAAQAAAABAQAAAAAAAAAAAAAQAAAAAAAAAEAAABBAAAAAAAAAEAABAAAAgACwEABAAAAABAAAIA==

$$$$

 OpenBabel04131118512D

 13 13  0  0  0  0  0  0  0  0999 V2000
    1.9920    0.0000    0.0000 Cl  0  0  0  0  0  0  0  0  0  0  0  0
    2.6560   -1.1545    0.0000 C   0  0  0  0  0  0  0  0  0  0  0  0
    3.9900   -1.1545    0.0000 C   0  0  0  0  0  0  0  0  0  0  0  0
    4.6540   -2.3031    0.0000 C   0  0  0  0  0  0  0  0  0  0  0  0
    3.9900   -3.4576    0.0000 C   0  0  0  0  0  0  0  0  0  0  0  0
    2.6560   -3.4576    0.0000 C   0  0  0  0  0  0  0  0  0  0  0  0
    1.9920   -2.3031    0.0000 C   0  0  0  0  0  0  0  0  0  0  0  0
    0.6640   -2.3031    0.0000 O   0  0  0  0  0  0  0  0  0  0  0  0
    0.0000   -3.4576    0.0000 C   0  0  0  0  0  0  0  0  0  0  0  0
    1.9920   -4.6062    0.0000 Cl  0  0  0  0  0  0  0  0  0  0  0  0
    4.6540   -4.6062    0.0000 Cl  0  0  0  0  0  0  0  0  0  0  0  0
    5.9820   -2.3031    0.0000 Cl  0  0  0  0  0  0  0  0  0  0  0  0
    4.6540    0.0000    0.0000 Cl  0  0  0  0  0  0  0  0  0  0  0  0
  1  2  1  0  0  0  0
  2  3  2  0  0  0  0
  2  7  1  0  0  0  0
  3  4  1  0  0  0  0
  3 13  1  0  0  0  0
  4  5  2  0  0  0  0
  4 12  1  0  0  0  0
  5  6  1  0  0  0  0
  5 11  1  0  0  0  0
  6  7  2  0  0  0  0
  6 10  1  0  0  0  0
  7  8  1  0  0  0  0
  8  9  1  0  0  0  0
M  END
>  <ActivityOutcome_CPDBAS_Rat>
active

>  <cdk:Formula>
[]

>  <TD50_Rat_mmol>
0.0885

>  <net.bioclipse.cdk.fingerprint>
GAAAAAAAAAAAAEoAAAAAAAAAAAAAAACAAAAAAAAAAAAAAuEAAAAAAAAAAAAAAAAgAAAgAAAAAGBAAAQAAAABAAIQAAAAAAAAAAAEAAAAoABMAAAAAAAACQEAAAAAAAAgAAAAgCIkIAAAAFIAAAAAAAAAAIAAAAAAAAAAACAAAA==

$$$$

 OpenBabel04131118512D

 12 12  0  0  0  0  0  0  0  0999 V2000
    0.0000   -2.3036    0.0000 O   0  0  0  0  0  0  0  0  0  0  0  0
    1.3300   -2.3036    0.0000 C   0  0  0  0  0  0  0  0  0  0  0  0
    1.9950   -1.1491    0.0000 C   0  0  0  0  0  0  0  0  0  0  0  0
    3.3250   -1.1491    0.0000 C   0  0  0  0  0  0  0  0  0  0  0  0
    3.9901   -2.3036    0.0000 C   0  0  0  0  0  0  0  0  0  0  0  0
    3.3250   -3.4581    0.0000 C   0  0  0  0  0  0  0  0  0  0  0  0
    1.9950   -3.4581    0.0000 C   0  0  0  0  0  0  0  0  0  0  0  0
    1.3300   -4.6072    0.0000 Cl  0  0  0  0  0  0  0  0  0  0  0  0
    3.9901   -4.6072    0.0000 Cl  0  0  0  0  0  0  0  0  0  0  0  0
    5.3201   -2.3036    0.0000 Cl  0  0  0  0  0  0  0  0  0  0  0  0
    3.9901    0.0000    0.0000 Cl  0  0  0  0  0  0  0  0  0  0  0  0
    1.3300    0.0000    0.0000 Cl  0  0  0  0  0  0  0  0  0  0  0  0
  1  2  1  0  0  0  0
  2  3  2  0  0  0  0
  2  7  1  0  0  0  0
  3  4  1  0  0  0  0
  3 12  1  0  0  0  0
  4  5  2  0  0  0  0
  4 11  1  0  0  0  0
  5  6  1  0  0  0  0
  5 10  1  0  0  0  0
  6  7  2  0  0  0  0
  6  9  1  0  0  0  0
  7  8  1  0  0  0  0
M  END
>  <ActivityOutcome_CPDBAS_Rat>
active

>  <cdk:Formula>
[]

>  <TD50_Rat_mmol>
0.222

>  <net.bioclipse.cdk.fingerprint>
GAAAAAAAAAAAAEoAAAAAAAAAAAAAAAAAAAAAAAAAAAAAAuEAAAAAAAAAAAAAAAAgAAAgAAAAAEBAAAQAAAABAAAAAAAAAAAAAAAAAAAAgAAMAAAAAAAAAQEAAAAAAAAgAAAAgCAkAAAAAFIAAAAAAAAAAIAAAAAAAAAAAAAAAA==

$$$$

 OpenBabel04131118512D

 12 12  0  0  0  0  0  0  0  0999 V2000
    0.0000   -2.3036    0.0000 O   0  0  0  0  0  0  0  0  0  0  0  0
    1.3300   -2.3036    0.0000 C   0  0  0  0  0  0  0  0  0  0  0  0
    1.9950   -1.1491    0.0000 C   0  0  0  0  0  0  0  0  0  0  0  0
    3.3250   -1.1491    0.0000 C   0  0  0  0  0  0  0  0  0  0  0  0
    3.9901   -2.3036    0.0000 C   0  0  0  0  0  0  0  0  0  0  0  0
    3.3250   -3.4581    0.0000 C   0  0  0  0  0  0  0  0  0  0  0  0
    1.9950   -3.4581    0.0000 C   0  0  0  0  0  0  0  0  0  0  0  0
    1.3300   -4.6072    0.0000 Cl  0  0  0  0  0  0  0  0  0  0  0  0
    3.9901   -4.6072    0.0000 Cl  0  0  0  0  0  0  0  0  0  0  0  0
    5.3201   -2.3036    0.0000 Cl  0  0  0  0  0  0  0  0  0  0  0  0
    3.9901    0.0000    0.0000 Cl  0  0  0  0  0  0  0  0  0  0  0  0
    1.3300    0.0000    0.0000 Cl  0  0  0  0  0  0  0  0  0  0  0  0
  1  2  1  0  0  0  0
  2  3  2  0  0  0  0
  2  7  1  0  0  0  0
  3  4  1  0  0  0  0
  3 12  1  0  0  0  0
  4  5  2  0  0  0  0
  4 11  1  0  0  0  0
  5  6  1  0  0  0  0
  5 10  1  0  0  0  0
  6  7  2  0  0  0  0
  6  9  1  0  0  0  0
  7  8  1  0  0  0  0
M  END
>  <ActivityOutcome_CPDBAS_Rat>
active

>  <cdk:Formula>
[]

>  <TD50_Rat_mmol>
0.0492

>  <net.bioclipse.cdk.fingerprint>
GAAAAAAAAAAAAEoAAAAAAAAAAAAAAAAAAAAAAAAAAAAAAuEAAAAAAAAAAAAAAAAgAAAgAAAAAEBAAAQAAAABAAAAAAAAAAAAAAAAAAAAgAAMAAAAAAAAAQEAAAAAAAAgAAAAgCAkAAAAAFIAAAAAAAAAAIAAAAAAAAAAAAAAAA==

$$$$

 OpenBabel04131118512D

 27 29  0  0  0  0  0  0  0  0999 V2000
    2.4664   -0.7059    0.0000 O   0  0  0  0  0  0  0  0  0  0  0  0
    1.5197   -3.8864    0.0000 O   0  0  0  0  0  0  0  0  0  0  0  0
    4.9659   -1.7937    0.0000 C   0  0  2  0  0  0  0  0  0  0  0  0
    3.7037   -1.0712    0.0000 C   0  0  0  0  0  0  0  0  0  0  0  0
    3.7037   -3.9694    0.0000 O   0  0  0  0  0  0  0  0  0  0  0  0
    2.4497   -1.7937    0.0000 C   0  0  0  0  0  0  0  0  0  0  0  0
    2.4497   -3.2470    0.0000 C   0  0  0  0  0  0  0  0  0  0  0  0
    7.4738   -1.7937    0.0000 C   0  0  0  0  0  0  0  0  0  0  0  0
    7.4738   -3.2470    0.0000 O   0  0  0  0  0  0  0  0  0  0  0  0
    6.2199   -1.0712    0.0000 C   0  0  1  0  0  0  0  0  0  0  0  0
    6.3943   -3.9694    0.0000 C   0  0  0  0  0  0  0  0  0  0  0  0
    2.7902   -6.0206    0.0000 C   0  0  0  0  0  0  0  0  0  0  0  0
    3.6539   -4.8580    0.0000 C   0  0  2  0  0  0  0  0  0  0  0  0
    3.6373   -7.1998    0.0000 C   0  0  0  0  0  0  0  0  0  0  0  0
    5.0324   -5.3147    0.0000 C   0  0  0  0  0  0  0  0  0  0  0  0
    5.0158   -6.7679    0.0000 N   0  0  0  0  0  0  0  0  0  0  0  0
    6.4109   -4.8746    0.0000 C   0  0  0  0  0  0  0  0  0  0  0  0
    7.2579   -6.0621    0.0000 C   0  0  0  0  0  0  0  0  0  0  0  0
    6.3943   -7.2247    0.0000 C   0  0  0  0  0  0  0  0  0  0  0  0
    5.0324   -4.3016    0.0000 O   0  0  0  0  0  0  0  0  0  0  0  0
    5.0158   -8.2544    0.0000 C   0  0  0  0  0  0  0  0  0  0  0  0
    8.3042   -1.3702    0.0000 O   0  0  0  0  0  0  0  0  0  0  0  0
    1.0879   -1.1875    0.0000 C   0  0  1  0  0  0  0  0  0  0  0  0
    0.0000   -1.7522    0.0000 C   0  0  0  0  0  0  0  0  0  0  0  0
    5.8545   -2.6241    0.0000 C   0  0  0  0  0  0  0  0  0  0  0  0
    7.1665   -0.2159    0.0000 C   0  0  0  0  0  0  0  0  0  0  0  0
    5.3147    0.0000    0.0000 O   0  0  0  0  0  0  0  0  0  0  0  0
  1  6  1  0  0  0  0
  1 23  1  0  0  0  0
  2  7  2  0  0  0  0
  3  4  1  0  0  0  0
  3 10  1  0  0  0  0
  3 25  1  6  0  0  0
  4  6  1  0  0  0  0
  5  7  1  0  0  0  0
  6  7  1  0  0  0  0
  6 23  1  0  0  0  0
  8  9  1  0  0  0  0
  8 10  1  0  0  0  0
  8 22  2  0  0  0  0
  9 11  1  0  0  0  0
 10 26  1  6  0  0  0
 10 27  1  1  0  0  0
 11 17  1  0  0  0  0
 12 13  1  0  0  0  0
 12 14  1  0  0  0  0
 13  5  1  1  0  0  0
 13 15  1  0  0  0  0
 14 16  1  0  0  0  0
 15 17  1  0  0  0  0
 15 20  2  0  0  0  0
 16 19  1  0  0  0  0
 16 21  1  0  0  0  0
 17 18  2  0  0  0  0
 18 19  1  0  0  0  0
 23 24  1  1  0  0  0
M  END
>  <ActivityOutcome_CPDBAS_Rat>
active

>  <cdk:Formula>
[]

>  <TD50_Rat_mmol>
0.00242

>  <net.bioclipse.cdk.fingerprint>
AtCQJQACAgFqAYGCFUMBQBC0YAIMBXEC4RIAAYMAACAXAYBgRIoEAgAgIAEBAADYbgYyAAXQEBJhAEAjwWAQQBACBAAMUgHAAEQAAVagUdgBAAgTIGBEQCAlMgAAAEIYgAhIRRABAAGBCoggYFAgA7UACCgE+HrACEpoRAYCACA=

$$$$

 OpenBabel04131118512D

 13 13  0  0  0  0  0  0  0  0999 V2000
    9.2089    0.0000    0.0000 C   0  0  0  0  0  0  0  0  0  0  0  0
    8.0578   -0.6630    0.0000 C   0  0  0  0  0  0  0  0  0  0  0  0
    8.0578   -1.9983    0.0000 O   0  0  0  0  0  0  0  0  0  0  0  0
    6.9067    0.0000    0.0000 N   0  0  0  0  0  0  0  0  0  0  0  0
    5.7556   -0.6630    0.0000 C   0  0  0  0  0  0  0  0  0  0  0  0
    5.7556   -1.9983    0.0000 C   0  0  0  0  0  0  0  0  0  0  0  0
    4.6044   -2.6614    0.0000 C   0  0  0  0  0  0  0  0  0  0  0  0
    3.4533   -1.9983    0.0000 C   0  0  0  0  0  0  0  0  0  0  0  0
    3.4533   -0.6630    0.0000 C   0  0  0  0  0  0  0  0  0  0  0  0
    4.6044    0.0000    0.0000 C   0  0  0  0  0  0  0  0  0  0  0  0
    2.3022   -2.6614    0.0000 O   0  0  0  0  0  0  0  0  0  0  0  0
    1.1511   -1.9983    0.0000 C   0  0  0  0  0  0  0  0  0  0  0  0
    0.0000   -2.6614    0.0000 C   0  0  0  0  0  0  0  0  0  0  0  0
  1  2  1  0  0  0  0
  2  3  2  0  0  0  0
  2  4  1  0  0  0  0
  4  5  1  0  0  0  0
  5  6  2  0  0  0  0
  5 10  1  0  0  0  0
  6  7  1  0  0  0  0
  7  8  2  0  0  0  0
  8  9  1  0  0  0  0
  8 11  1  0  0  0  0
  9 10  2  0  0  0  0
 11 12  1  0  0  0  0
 12 13  1  0  0  0  0
M  END
>  <ActivityOutcome_CPDBAS_Rat>
active

>  <cdk:Formula>
[]

>  <TD50_Rat_mmol>
6.97

>  <net.bioclipse.cdk.fingerprint>
ICIAgAIAEAAEAAAAAAAAAECBAAAAAATAAggAAmEIAAAAAAAACAAAAIAgAgQgAIACAEAAAAiABAAAwAIQAAAAQQAAAAAEBIAAkAABAAAAAAAAAAAQAAAAAAAgAEAABCAgIAAAAAIAAAAAAAAAAIhQAEAAgBAAACIQAA==

$$$$

 OpenBabel04131118512D

 14 15  0  0  0  0  0  0  0  0999 V2000
    4.8193   -4.5221    0.0000 C   0  0  0  0  0  0  0  0  0  0  0  0
    4.8917   -3.1959    0.0000 N   0  0  0  0  0  0  0  0  0  0  0  0
    3.8554   -2.3553    0.0000 N   0  0  0  0  0  0  0  0  0  0  0  0
    2.5727   -2.7031    0.0000 C   0  0  0  0  0  0  0  0  0  0  0  0
    2.2248   -3.9859    0.0000 C   0  0  0  0  0  0  0  0  0  0  0  0
    0.9421   -4.3265    0.0000 C   0  0  0  0  0  0  0  0  0  0  0  0
    0.0000   -3.3916    0.0000 C   0  0  0  0  0  0  0  0  0  0  0  0
    0.3479   -2.1016    0.0000 C   0  0  0  0  0  0  0  0  0  0  0  0
    1.6306   -1.7610    0.0000 C   0  0  0  0  0  0  0  0  0  0  0  0
    4.3337   -1.1160    0.0000 C   0  0  0  0  0  0  0  0  0  0  0  0
    3.6090    0.0000    0.0000 O   0  0  0  0  0  0  0  0  0  0  0  0
    5.6599   -1.1813    0.0000 C   0  0  0  0  0  0  0  0  0  0  0  0
    6.0078   -2.4712    0.0000 C   0  0  0  0  0  0  0  0  0  0  0  0
    7.2470   -2.9423    0.0000 C   0  0  0  0  0  0  0  0  0  0  0  0
  1  2  1  0  0  0  0
  2  3  1  0  0  0  0
  2 13  1  0  0  0  0
  3  4  1  0  0  0  0
  3 10  1  0  0  0  0
  4  5  2  0  0  0  0
  4  9  1  0  0  0  0
  5  6  1  0  0  0  0
  6  7  2  0  0  0  0
  7  8  1  0  0  0  0
  8  9  2  0  0  0  0
 10 11  2  0  0  0  0
 10 12  1  0  0  0  0
 12 13  2  0  0  0  0
 13 14  1  0  0  0  0
M  END
>  <ActivityOutcome_CPDBAS_Rat>
active

>  <cdk:Formula>
[]

>  <TD50_Rat_mmol>
6.53

>  <net.bioclipse.cdk.fingerprint>
QEAACAgAACAiAAAEAACQQEACAICAIEBQASAQAgEEyEICAABkAAAAQAAAAAAAEASIIAAEAAAQEgBhAIAAgBUIAsACAAQBSCEAAAggAASAALBBAAJAAIAABAAAAAAAEgAAoQBAIAAjCAgAEgAGAAQAAAAAAACEdAhAAYIAAAADEAA=

$$$$

 OpenBabel04131118512D

 44 48  0  0  0  0  0  0  0  0999 V2000
    9.3261   -4.6137    0.0000 O   0  0  0  0  0  0  0  0  0  0  0  0
    9.3508   -5.9460    0.0000 C   0  0  0  0  0  0  0  0  0  0  0  0
    8.2159   -6.6615    0.0000 C   0  0  0  0  0  0  0  0  0  0  0  0
    6.9823   -5.9707    0.0000 C   0  0  0  0  0  0  0  0  0  0  0  0
    5.8720   -6.7109    0.0000 C   0  0  0  0  0  0  0  0  0  0  0  0
    4.6877   -5.9460    0.0000 C   0  0  0  0  0  0  0  0  0  0  0  0
    4.6631   -4.7124    0.0000 C   0  0  0  0  0  0  0  0  0  0  0  0
    5.8227   -4.0216    0.0000 C   0  0  0  0  0  0  0  0  0  0  0  0
    7.0069   -4.6631    0.0000 C   0  0  0  0  0  0  0  0  0  0  0  0
    3.4788   -4.0709    0.0000 N   0  0  0  0  0  0  0  0  0  0  0  0
    3.4541   -2.7386    0.0000 C   0  0  0  0  0  0  0  0  0  0  0  0
    2.2699   -2.0971    0.0000 C   0  0  0  0  0  0  0  0  0  0  0  0
    2.2205   -0.7402    0.0000 Cl  0  0  0  0  0  0  0  0  0  0  0  0
    2.3439   -4.7864    0.0000 C   0  0  0  0  0  0  0  0  0  0  0  0
    1.1596   -4.1450    0.0000 C   0  0  0  0  0  0  0  0  0  0  0  0
    0.0000   -4.8358    0.0000 Cl  0  0  0  0  0  0  0  0  0  0  0  0
   17.3200   -2.6646    0.0000 C   0  0  1  0  0  0  0  0  0  0  0  0
   13.8165   -4.6631    0.0000 C   0  0  1  0  0  0  0  0  0  0  0  0
   13.8165   -6.0200    0.0000 C   0  0  0  0  0  0  0  0  0  0  0  0
   17.3200   -4.0216    0.0000 C   0  0  0  0  0  0  0  0  0  0  0  0
   14.9761   -3.9969    0.0000 C   0  0  0  0  0  0  0  0  0  0  0  0
   16.1604   -4.6631    0.0000 C   0  0  0  0  0  0  0  0  0  0  0  0
   18.6029   -2.2452    0.0000 C   0  0  0  0  0  0  0  0  0  0  0  0
   14.9761   -6.6862    0.0000 C   0  0  0  0  0  0  0  0  0  0  0  0
   16.1604   -2.0231    0.0000 C   0  0  0  0  0  0  0  0  0  0  0  0
   16.1604   -6.0200    0.0000 C   0  0  0  0  0  0  0  0  0  0  0  0
   14.9761   -2.6646    0.0000 C   0  0  0  0  0  0  0  0  0  0  0  0
   18.6029   -4.4410    0.0000 C   0  0  0  0  0  0  0  0  0  0  0  0
   12.6569   -3.9969    0.0000 C   0  0  0  0  0  0  0  0  0  0  0  0
   19.3431   -3.3308    0.0000 C   0  0  0  0  0  0  0  0  0  0  0  0
   12.6569   -6.6862    0.0000 C   0  0  0  0  0  0  0  0  0  0  0  0
   19.0470   -0.9869    0.0000 C   0  0  1  0  0  0  0  0  0  0  0  0
   17.3200   -1.4063    0.0000 C   0  0  0  0  0  0  0  0  0  0  0  0
   11.4973   -4.6631    0.0000 C   0  0  0  0  0  0  0  0  0  0  0  0
   11.4973   -6.0200    0.0000 C   0  0  2  0  0  0  0  0  0  0  0  0
   13.8165   -3.4048    0.0000 C   0  0  0  0  0  0  0  0  0  0  0  0
   10.5351   -6.5875    0.0000 O   0  0  0  0  0  0  0  0  0  0  0  0
   21.1442   -1.8011    0.0000 C   0  0  0  0  0  0  0  0  0  0  0  0
   20.3547   -0.7648    0.0000 C   0  0  0  0  0  0  0  0  0  0  0  0
   18.1835    0.0000    0.0000 C   0  0  0  0  0  0  0  0  0  0  0  0
   22.5012   -1.6037    0.0000 C   0  0  0  0  0  0  0  0  0  0  0  0
   23.3400   -2.6399    0.0000 C   0  0  0  0  0  0  0  0  0  0  0  0
   22.8466   -3.8736    0.0000 C   0  0  0  0  0  0  0  0  0  0  0  0
   24.6723   -2.4179    0.0000 C   0  0  0  0  0  0  0  0  0  0  0  0
  1  2  2  0  0  0  0
  2  3  1  0  0  0  0
  2 37  1  0  0  0  0
  3  4  1  0  0  0  0
  4  5  2  0  0  0  0
  4  9  1  0  0  0  0
  5  6  1  0  0  0  0
  6  7  2  0  0  0  0
  7  8  1  0  0  0  0
  7 10  1  0  0  0  0
  8  9  2  0  0  0  0
 10 11  1  0  0  0  0
 10 14  1  0  0  0  0
 11 12  1  0  0  0  0
 12 13  1  0  0  0  0
 14 15  1  0  0  0  0
 15 16  1  0  0  0  0
 17 20  1  0  0  0  0
 17 23  1  0  0  0  0
 17 25  1  0  0  0  0
 17 33  1  1  0  0  0
 18 21  1  0  0  0  0
 18 19  1  0  0  0  0
 18 29  1  0  0  0  0
 18 36  1  1  0  0  0
 19 31  1  0  0  0  0
 19 24  2  0  0  0  0
 20 22  1  0  0  0  0
 20 28  1  0  0  0  0
 21 27  1  0  0  0  0
 21 22  1  0  0  0  0
 22 26  1  0  0  0  0
 23 30  1  0  0  0  0
 23 32  1  0  0  0  0
 24 26  1  0  0  0  0
 25 27  1  0  0  0  0
 28 30  1  0  0  0  0
 29 34  1  0  0  0  0
 31 35  1  0  0  0  0
 32 39  1  0  0  0  0
 32 40  1  6  0  0  0
 34 35  1  0  0  0  0
 35 37  1  1  0  0  0
 38 39  1  0  0  0  0
 38 41  1  0  0  0  0
 41 42  1  0  0  0  0
 42 43  1  0  0  0  0
 42 44  1  0  0  0  0
M  END
>  <ActivityOutcome_CPDBAS_Rat>
active

>  <cdk:Formula>
[]

>  <TD50_Rat_mmol>
0.000811

>  <net.bioclipse.cdk.fingerprint>
CMCQAAACAwAqAAACEwBEBBAgAgaIBEDFwQQAAIAFQAIIUQjgAIAAAAAEAAEgEEDQoAckQhIAEiBAAAAA0EQEAUAMDCgMBhSAGAwQQEKgFZIAAAARQAAAQADBEAAAAoAIIABIAUAgQAIgIABCQBAGAxAAFACE0BiAAIAQQCCCUCA=

$$$$

 OpenBabel04131118512D

 24 27  0  0  0  0  0  0  0  0999 V2000
    0.5369   -6.3722    0.0000 O   0  0  0  0  0  0  0  0  0  0  0  0
    1.4292   -5.3773    0.0000 C   0  0  0  0  0  0  0  0  0  0  0  0
    2.7479   -5.5194    0.0000 O   0  0  0  0  0  0  0  0  0  0  0  0
    3.2927   -4.3034    0.0000 C   0  0  0  0  0  0  0  0  0  0  0  0
    2.3057   -3.4191    0.0000 C   0  0  0  0  0  0  0  0  0  0  0  0
    1.1528   -4.0823    0.0000 C   0  0  0  0  0  0  0  0  0  0  0  0
    0.0000   -3.4191    0.0000 C   0  0  0  0  0  0  0  0  0  0  0  0
    0.0000   -2.0846    0.0000 C   0  0  0  0  0  0  0  0  0  0  0  0
    1.1528   -1.4213    0.0000 C   0  0  0  0  0  0  0  0  0  0  0  0
    2.3057   -2.0846    0.0000 C   0  0  0  0  0  0  0  0  0  0  0  0
    4.0744   -3.2295    0.0000 C   0  0  0  0  0  0  0  0  0  0  0  0
    3.5296   -2.0135    0.0000 C   0  0  0  0  0  0  0  0  0  0  0  0
    4.3113   -0.9396    0.0000 C   0  0  0  0  0  0  0  0  0  0  0  0
    5.6379   -1.0818    0.0000 C   0  0  0  0  0  0  0  0  0  0  0  0
    6.1748   -2.2899    0.0000 C   0  0  0  0  0  0  0  0  0  0  0  0
    5.3931   -3.3717    0.0000 C   0  0  0  0  0  0  0  0  0  0  0  0
    6.4196    0.0000    0.0000 O   0  0  0  0  0  0  0  0  0  0  0  0
    4.4456   -4.9667    0.0000 C   0  0  0  0  0  0  0  0  0  0  0  0
    5.5905   -4.3034    0.0000 C   0  0  0  0  0  0  0  0  0  0  0  0
    6.7433   -4.9667    0.0000 C   0  0  0  0  0  0  0  0  0  0  0  0
    6.7433   -6.3012    0.0000 C   0  0  0  0  0  0  0  0  0  0  0  0
    5.5905   -6.9644    0.0000 C   0  0  0  0  0  0  0  0  0  0  0  0
    4.4456   -6.3012    0.0000 C   0  0  0  0  0  0  0  0  0  0  0  0
    7.8962   -6.9644    0.0000 O   0  0  0  0  0  0  0  0  0  0  0  0
  1  2  2  0  0  0  0
  2  3  1  0  0  0  0
  2  6  1  0  0  0  0
  3  4  1  0  0  0  0
  4  5  1  0  0  0  0
  4 11  1  0  0  0  0
  4 18  1  0  0  0  0
  5  6  2  0  0  0  0
  5 10  1  0  0  0  0
  6  7  1  0  0  0  0
  7  8  2  0  0  0  0
  8  9  1  0  0  0  0
  9 10  2  0  0  0  0
 11 12  2  0  0  0  0
 11 16  1  0  0  0  0
 12 13  1  0  0  0  0
 13 14  2  0  0  0  0
 14 15  1  0  0  0  0
 14 17  1  0  0  0  0
 15 16  2  0  0  0  0
 18 19  2  0  0  0  0
 18 23  1  0  0  0  0
 19 20  1  0  0  0  0
 20 21  2  0  0  0  0
 21 22  1  0  0  0  0
 21 24  1  0  0  0  0
 22 23  2  0  0  0  0
M  END
>  <ActivityOutcome_CPDBAS_Rat>
active

>  <cdk:Formula>
[]

>  <TD50_Rat_mmol>
2.83

>  <net.bioclipse.cdk.fingerprint>
AgAIAAAAAAAAA4ECAIAAABABAAAAAAAAgAAAAIAAAAAYAAJpAIADBAoAEAECABBAIAIEIAABgCBIAQAAQAAAAAAMCAAAAABAAAAAAAIAIIAYEgAAwACAAACAEEAAKICIIIBKAEAgJAAAAAAGQAgECCCQFACAUAhBSBEAIABAIAA=

$$$$

 OpenBabel04131118512D

 11 11  0  0  0  0  0  0  0  0999 V2000
    0.0000   -2.3079    0.0000 C   0  0  0  0  0  0  0  0  0  0  0  0
    0.6651   -1.1573    0.0000 N   0  0  0  0  0  0  0  0  0  0  0  0
    0.0000    0.0000    0.0000 C   0  0  0  0  0  0  0  0  0  0  0  0
    1.9953   -1.1573    0.0000 N   0  0  0  0  0  0  0  0  0  0  0  0
    2.6605   -2.3079    0.0000 N   0  0  0  0  0  0  0  0  0  0  0  0
    3.9907   -2.3079    0.0000 C   0  0  0  0  0  0  0  0  0  0  0  0
    4.6558   -1.1573    0.0000 C   0  0  0  0  0  0  0  0  0  0  0  0
    5.9860   -1.1573    0.0000 C   0  0  0  0  0  0  0  0  0  0  0  0
    6.6511   -2.3079    0.0000 C   0  0  0  0  0  0  0  0  0  0  0  0
    5.9860   -3.4586    0.0000 C   0  0  0  0  0  0  0  0  0  0  0  0
    4.6558   -3.4586    0.0000 C   0  0  0  0  0  0  0  0  0  0  0  0
  1  2  1  0  0  0  0
  2  3  1  0  0  0  0
  2  4  1  0  0  0  0
  4  5  2  0  0  0  0
  5  6  1  0  0  0  0
  6  7  2  0  0  0  0
  6 11  1  0  0  0  0
  7  8  1  0  0  0  0
  8  9  2  0  0  0  0
  9 10  1  0  0  0  0
 10 11  2  0  0  0  0
M  END
>  <ActivityOutcome_CPDBAS_Rat>
active

>  <cdk:Formula>
[]

>  <TD50_Rat_mmol>
0.0155

>  <net.bioclipse.cdk.fingerprint>
AIJAAKAAAAAAAAAAAAAAAAgAAEAAAAAAAAQAAgAAAGAAAAAAAAAAAAAAAAAAAAAAAAAAAEAAAACAgAAQAgAAAgAAQCAgAAAAAAAAAAAAAAAAABAAACAAAAABAAIgAAAgACAAACAAAAJAAAAAAAAAAIAAAAAAAAAAAAMQAQ==

$$$$

 OpenBabel04131118512D

 17 17  0  0  0  0  0  0  0  0999 V2000
    1.9954   -4.6053    0.0000 C   0  0  0  0  0  0  0  0  0  0  0  0
    0.6625   -4.6053    0.0000 C   0  0  0  0  0  0  0  0  0  0  0  0
    0.0000   -3.4560    0.0000 C   0  0  0  0  0  0  0  0  0  0  0  0
    0.6625   -2.3066    0.0000 C   0  0  0  0  0  0  0  0  0  0  0  0
    1.9954   -2.3066    0.0000 C   0  0  0  0  0  0  0  0  0  0  0  0
    2.6578   -3.4560    0.0000 C   0  0  0  0  0  0  0  0  0  0  0  0
    3.9907   -3.4560    0.0000 C   0  0  0  0  0  0  0  0  0  0  0  0
    4.6532   -2.3066    0.0000 C   0  0  0  0  0  0  0  0  0  0  0  0
    5.9861   -2.3066    0.0000 O   0  0  0  0  0  0  0  0  0  0  0  0
    6.6486   -1.1493    0.0000 C   0  0  0  0  0  0  0  0  0  0  0  0
    7.9815   -1.1493    0.0000 N   0  0  0  0  0  0  0  0  0  0  0  0
    5.9861    0.0000    0.0000 O   0  0  0  0  0  0  0  0  0  0  0  0
    4.6532   -4.6053    0.0000 C   0  0  0  0  0  0  0  0  0  0  0  0
    5.9861   -4.6053    0.0000 O   0  0  0  0  0  0  0  0  0  0  0  0
    6.6486   -5.7626    0.0000 C   0  0  0  0  0  0  0  0  0  0  0  0
    7.9815   -5.7626    0.0000 N   0  0  0  0  0  0  0  0  0  0  0  0
    5.9861   -6.9120    0.0000 O   0  0  0  0  0  0  0  0  0  0  0  0
  1  2  2  0  0  0  0
  1  6  1  0  0  0  0
  2  3  1  0  0  0  0
  3  4  2  0  0  0  0
  4  5  1  0  0  0  0
  5  6  2  0  0  0  0
  6  7  1  0  0  0  0
  7  8  1  0  0  0  0
  7 13  1  0  0  0  0
  8  9  1  0  0  0  0
  9 10  1  0  0  0  0
 10 11  1  0  0  0  0
 10 12  2  0  0  0  0
 13 14  1  0  0  0  0
 14 15  1  0  0  0  0
 15 16  1  0  0  0  0
 15 17  2  0  0  0  0
M  END
>  <ActivityOutcome_CPDBAS_Rat>
active

>  <cdk:Formula>
[]

>  <TD50_Rat_mmol>
4.58

>  <net.bioclipse.cdk.fingerprint>
CACAAIAAAAAAAAACAAAAAAAAEAAAAAAAgCQAAIAAAAAIAABgAAAAAAAAEgAIAABQIEYAABAAAABAAAAAQAAAAAAMCAAAAAAAAAAAAAAABAAAAAABAAAAQACAEQAAAoIAIABALEAgAAAAAEAKQAAEAgAAFACAQiAAAAAQAgASQAA=

$$$$

 OpenBabel04131118512D

 19 21  0  0  0  0  0  0  0  0999 V2000
    4.6062    0.0000    0.0000 O   0  0  0  0  0  0  0  0  0  0  0  0
    3.4546   -0.6633    0.0000 C   0  0  0  0  0  0  0  0  0  0  0  0
    2.3031    0.0000    0.0000 C   0  0  0  0  0  0  0  0  0  0  0  0
    1.1515   -0.6633    0.0000 C   0  0  0  0  0  0  0  0  0  0  0  0
    1.1515   -1.9899    0.0000 C   0  0  0  0  0  0  0  0  0  0  0  0
    2.3031   -2.6532    0.0000 C   0  0  0  0  0  0  0  0  0  0  0  0
    3.4546   -1.9899    0.0000 C   0  0  0  0  0  0  0  0  0  0  0  0
    4.6062   -2.6532    0.0000 N   0  0  0  0  0  0  0  0  0  0  0  0
    5.7577   -1.9899    0.0000 N   0  0  0  0  0  0  0  0  0  0  0  0
    6.9093   -2.6532    0.0000 C   0  0  0  0  0  0  0  0  0  0  0  0
    8.0608   -1.9899    0.0000 C   0  0  0  0  0  0  0  0  0  0  0  0
    9.2124   -2.6532    0.0000 C   0  0  0  0  0  0  0  0  0  0  0  0
    9.2124   -3.9889    0.0000 C   0  0  0  0  0  0  0  0  0  0  0  0
    8.0608   -4.6522    0.0000 C   0  0  0  0  0  0  0  0  0  0  0  0
    6.9093   -3.9889    0.0000 C   0  0  0  0  0  0  0  0  0  0  0  0
    2.3031   -3.9889    0.0000 C   0  0  0  0  0  0  0  0  0  0  0  0
    1.1515   -4.6522    0.0000 C   0  0  0  0  0  0  0  0  0  0  0  0
    0.0000   -3.9889    0.0000 C   0  0  0  0  0  0  0  0  0  0  0  0
    0.0000   -2.6532    0.0000 C   0  0  0  0  0  0  0  0  0  0  0  0
  1  2  1  0  0  0  0
  2  3  2  0  0  0  0
  2  7  1  0  0  0  0
  3  4  1  0  0  0  0
  4  5  2  0  0  0  0
  5  6  1  0  0  0  0
  5 19  1  0  0  0  0
  6  7  2  0  0  0  0
  6 16  1  0  0  0  0
  7  8  1  0  0  0  0
  8  9  2  0  0  0  0
  9 10  1  0  0  0  0
 10 11  2  0  0  0  0
 10 15  1  0  0  0  0
 11 12  1  0  0  0  0
 12 13  2  0  0  0  0
 13 14  1  0  0  0  0
 14 15  2  0  0  0  0
 16 17  2  0  0  0  0
 17 18  1  0  0  0  0
 18 19  2  0  0  0  0
M  END
>  <ActivityOutcome_CPDBAS_Rat>
active

>  <cdk:Formula>
[]

>  <TD50_Rat_mmol>
0.118

>  <net.bioclipse.cdk.fingerprint>
QAAAAAAAQAAgAAACCAAAAQIAAAABAABAAABACAAEAAIAAAJpEAAAAAAAAAAAAIAAAAAAIAAAAABCAAAACIAAEAAIAAIAAIAAoIAAAQAAAIAAAAAAAAAAAABgAAAAAAAAIAAAAAAgKAAgAAACAIAACABAAACAAAIAQAAQAAAjEAA=

$$$$

 OpenBabel04131118512D

 23 25  0  0  0  0  0  0  0  0999 V2000
    3.4209   -7.1079    0.0000 O   0  0  0  0  0  0  0  0  0  0  0  0
    4.2097   -6.0342    0.0000 C   0  0  0  0  0  0  0  0  0  0  0  0
    3.7915   -4.7703    0.0000 N   0  0  0  0  0  0  0  0  0  0  0  0
    2.5277   -4.3522    0.0000 C   0  0  0  0  0  0  0  0  0  0  0  0
    1.5394   -5.2454    0.0000 C   0  0  0  0  0  0  0  0  0  0  0  0
    0.2756   -4.8368    0.0000 C   0  0  0  0  0  0  0  0  0  0  0  0
    0.0000   -3.5350    0.0000 C   0  0  0  0  0  0  0  0  0  0  0  0
    0.9883   -2.6417    0.0000 C   0  0  0  0  0  0  0  0  0  0  0  0
    2.2521   -3.0598    0.0000 C   0  0  0  0  0  0  0  0  0  0  0  0
    4.8748   -3.9816    0.0000 N   0  0  0  0  0  0  0  0  0  0  0  0
    4.8748   -2.6512    0.0000 C   0  0  0  0  0  0  0  0  0  0  0  0
    3.7155   -1.9955    0.0000 C   0  0  0  0  0  0  0  0  0  0  0  0
    3.7155   -0.6652    0.0000 C   0  0  0  0  0  0  0  0  0  0  0  0
    4.8748    0.0000    0.0000 C   0  0  0  0  0  0  0  0  0  0  0  0
    6.0247   -0.6652    0.0000 C   0  0  0  0  0  0  0  0  0  0  0  0
    6.0247   -1.9955    0.0000 C   0  0  0  0  0  0  0  0  0  0  0  0
    5.9486   -4.7703    0.0000 C   0  0  0  0  0  0  0  0  0  0  0  0
    7.2125   -4.3522    0.0000 O   0  0  0  0  0  0  0  0  0  0  0  0
    5.5305   -6.0342    0.0000 C   0  0  0  0  0  0  0  0  0  0  0  0
    6.3192   -7.1079    0.0000 C   0  0  0  0  0  0  0  0  0  0  0  0
    7.6401   -6.9654    0.0000 C   0  0  0  0  0  0  0  0  0  0  0  0
    8.1817   -5.7586    0.0000 C   0  0  0  0  0  0  0  0  0  0  0  0
    9.5026   -5.6160    0.0000 C   0  0  0  0  0  0  0  0  0  0  0  0
  1  2  2  0  0  0  0
  2  3  1  0  0  0  0
  2 19  1  0  0  0  0
  3  4  1  0  0  0  0
  3 10  1  0  0  0  0
  4  5  2  0  0  0  0
  4  9  1  0  0  0  0
  5  6  1  0  0  0  0
  6  7  2  0  0  0  0
  7  8  1  0  0  0  0
  8  9  2  0  0  0  0
 10 11  1  0  0  0  0
 10 17  1  0  0  0  0
 11 12  2  0  0  0  0
 11 16  1  0  0  0  0
 12 13  1  0  0  0  0
 13 14  2  0  0  0  0
 14 15  1  0  0  0  0
 15 16  2  0  0  0  0
 17 18  2  0  0  0  0
 17 19  1  0  0  0  0
 19 20  1  0  0  0  0
 20 21  1  0  0  0  0
 21 22  1  0  0  0  0
 22 23  1  0  0  0  0
M  END
>  <ActivityOutcome_CPDBAS_Rat>
active

>  <cdk:Formula>
[]

>  <TD50_Rat_mmol>
3.76

>  <net.bioclipse.cdk.fingerprint>
AMCAAAgIAAAgIwAABCABgABAAACkgCACQEkAAAABBMhCAQEgYAAAEEAAAIAAAAAAkiAABCAEAAIAUADEIsIUAILAQBAAIAAhQAgAAAAEgACwQAAhICAAVgQAAIAAAAAAAGFAwCwAIwAIABAIJgAYAAGEQAAAgFAAQgiAACAECxgA

$$$$

 OpenBabel04131118512D

 11 12  0  0  0  0  0  0  0  0999 V2000
    3.9880   -1.1486    0.0000 O   0  0  0  0  0  0  0  0  0  0  0  0
    2.6611   -1.1486    0.0000 C   0  0  0  0  0  0  0  0  0  0  0  0
    1.9976   -2.3043    0.0000 C   0  0  0  0  0  0  0  0  0  0  0  0
    0.6635   -2.3043    0.0000 C   0  0  0  0  0  0  0  0  0  0  0  0
    0.0000   -1.1486    0.0000 C   0  0  0  0  0  0  0  0  0  0  0  0
    0.6635    0.0000    0.0000 C   0  0  0  0  0  0  0  0  0  0  0  0
    1.9976    0.0000    0.0000 C   0  0  0  0  0  0  0  0  0  0  0  0
    4.6515   -2.3043    0.0000 C   0  0  0  0  0  0  0  0  0  0  0  0
    5.9856   -2.3043    0.0000 C   0  0  0  0  0  0  0  0  0  0  0  0
    7.1342   -1.6409    0.0000 C   0  0  0  0  0  0  0  0  0  0  0  0
    7.1342   -2.9678    0.0000 O   0  0  0  0  0  0  0  0  0  0  0  0
  1  2  1  0  0  0  0
  1  8  1  0  0  0  0
  2  3  2  0  0  0  0
  2  7  1  0  0  0  0
  3  4  1  0  0  0  0
  4  5  2  0  0  0  0
  5  6  1  0  0  0  0
  6  7  2  0  0  0  0
  8  9  1  0  0  0  0
  9 10  1  0  0  0  0
  9 11  1  0  0  0  0
 10 11  1  0  0  0  0
M  END
>  <ActivityOutcome_CPDBAS_Rat>
active

>  <cdk:Formula>
[]

>  <TD50_Rat_mmol>
0.293

>  <net.bioclipse.cdk.fingerprint>
BAAAAAAAAAAAAAACABAABAAAAAAAAAAAgAAAAQAAAAAACAJhAAAAAAAAAAgAAAAYIAIQIACAAABAAAQIQAAAAAACEAAAAABAAQAgBCAAAIAAAAAAAAAAQIAAEAAIAEIAIAAAAAAgICAAAAACAAAAAAAAAACAACAAAAAAAAAiAAA=

$$$$

 OpenBabel04131118512D

 13 14  0  0  0  0  0  0  0  0999 V2000
    2.6607    0.0000    0.0000 O   0  0  0  0  0  0  0  0  0  0  0  0
    1.9955   -1.1574    0.0000 C   0  0  0  0  0  0  0  0  0  0  0  0
    2.6607   -2.3082    0.0000 C   0  0  0  0  0  0  0  0  0  0  0  0
    1.9955   -3.4589    0.0000 C   0  0  0  0  0  0  0  0  0  0  0  0
    0.6652   -3.4589    0.0000 C   0  0  0  0  0  0  0  0  0  0  0  0
    0.0000   -2.3082    0.0000 C   0  0  0  0  0  0  0  0  0  0  0  0
    0.6652   -1.1574    0.0000 C   0  0  0  0  0  0  0  0  0  0  0  0
    3.9910   -2.3082    0.0000 C   0  0  0  0  0  0  0  0  0  0  0  0
    4.6562   -1.1574    0.0000 C   0  0  0  0  0  0  0  0  0  0  0  0
    5.9866   -1.1574    0.0000 C   0  0  0  0  0  0  0  0  0  0  0  0
    6.6517   -2.3082    0.0000 C   0  0  0  0  0  0  0  0  0  0  0  0
    5.9866   -3.4589    0.0000 C   0  0  0  0  0  0  0  0  0  0  0  0
    4.6562   -3.4589    0.0000 C   0  0  0  0  0  0  0  0  0  0  0  0
  1  2  1  0  0  0  0
  2  3  2  0  0  0  0
  2  7  1  0  0  0  0
  3  4  1  0  0  0  0
  3  8  1  0  0  0  0
  4  5  2  0  0  0  0
  5  6  1  0  0  0  0
  6  7  2  0  0  0  0
  8  9  2  0  0  0  0
  8 13  1  0  0  0  0
  9 10  1  0  0  0  0
 10 11  2  0  0  0  0
 11 12  1  0  0  0  0
 12 13  2  0  0  0  0
M  END
>  <ActivityOutcome_CPDBAS_Rat>
active

>  <cdk:Formula>
[]

>  <TD50_Rat_mmol>
1.36

>  <net.bioclipse.cdk.fingerprint>
QAAAAAQAAgAAAAAAAAAAAAAAAAAAAAACAAAABCACYQAAAAAAAAAAAAAAACAAACAAAAQAQAAAAAAAAAAABgAAAAAACQAAAAAgAADAAAAAAAAAAAAAgAAAAAKAACAAAABAICAAAABAAkABAAAAAAAIgIAAABAICAAAAAAA

$$$$

 OpenBabel04131118512D

 24 25  0  0  0  0  0  0  0  0999 V2000
   16.1183    0.0000    0.0000 C   0  0  0  0  0  0  0  0  0  0  0  0
   16.1183   -1.3346    0.0000 C   0  0  0  0  0  0  0  0  0  0  0  0
   14.9718   -2.0020    0.0000 C   0  0  0  0  0  0  0  0  0  0  0  0
   14.9718   -3.3195    0.0000 C   0  0  0  0  0  0  0  0  0  0  0  0
   16.1183   -3.9868    0.0000 C   0  0  0  0  0  0  0  0  0  0  0  0
   16.1183   -5.3214    0.0000 C   0  0  0  0  0  0  0  0  0  0  0  0
   14.9718   -5.9887    0.0000 C   0  0  0  0  0  0  0  0  0  0  0  0
   13.8254   -5.3214    0.0000 C   0  0  0  0  0  0  0  0  0  0  0  0
   13.8254   -3.9868    0.0000 C   0  0  0  0  0  0  0  0  0  0  0  0
   12.6619   -3.3195    0.0000 C   0  0  0  0  0  0  0  0  0  0  0  0
   11.5155   -3.9868    0.0000 O   0  0  0  0  0  0  0  0  0  0  0  0
   10.3691   -3.3195    0.0000 C   0  0  0  0  0  0  0  0  0  0  0  0
    9.2055   -3.9868    0.0000 C   0  0  0  0  0  0  0  0  0  0  0  0
    8.0591   -3.3195    0.0000 O   0  0  0  0  0  0  0  0  0  0  0  0
    6.9127   -3.9868    0.0000 C   0  0  0  0  0  0  0  0  0  0  0  0
    5.7663   -3.3195    0.0000 C   0  0  0  0  0  0  0  0  0  0  0  0
    4.6028   -3.9868    0.0000 O   0  0  0  0  0  0  0  0  0  0  0  0
    3.4564   -3.3195    0.0000 C   0  0  0  0  0  0  0  0  0  0  0  0
    2.3099   -3.9868    0.0000 C   0  0  0  0  0  0  0  0  0  0  0  0
    1.1464   -3.3195    0.0000 C   0  0  0  0  0  0  0  0  0  0  0  0
    0.0000   -3.9868    0.0000 C   0  0  0  0  0  0  0  0  0  0  0  0
   15.2456   -7.2892    0.0000 O   0  0  0  0  0  0  0  0  0  0  0  0
   16.5631   -7.4260    0.0000 C   0  0  0  0  0  0  0  0  0  0  0  0
   17.1107   -6.2112    0.0000 O   0  0  0  0  0  0  0  0  0  0  0  0
  1  2  1  0  0  0  0
  2  3  1  0  0  0  0
  3  4  1  0  0  0  0
  4  5  2  0  0  0  0
  4  9  1  0  0  0  0
  5  6  1  0  0  0  0
  6  7  2  0  0  0  0
  6 24  1  0  0  0  0
  7  8  1  0  0  0  0
  7 22  1  0  0  0  0
  8  9  2  0  0  0  0
  9 10  1  0  0  0  0
 10 11  1  0  0  0  0
 11 12  1  0  0  0  0
 12 13  1  0  0  0  0
 13 14  1  0  0  0  0
 14 15  1  0  0  0  0
 15 16  1  0  0  0  0
 16 17  1  0  0  0  0
 17 18  1  0  0  0  0
 18 19  1  0  0  0  0
 19 20  1  0  0  0  0
 20 21  1  0  0  0  0
 22 23  1  0  0  0  0
 23 24  1  0  0  0  0
M  END
>  <ActivityOutcome_CPDBAS_Rat>
active

>  <cdk:Formula>
[]

>  <TD50_Rat_mmol>
1.87

>  <net.bioclipse.cdk.fingerprint>
AqAIAAAAAAVACgCSAAAAABAJAAKIQAEQgAACAUBCEgiIZArhUYAEgIAgGAAAIAAYIAbgIAAAACBpADAgQEAAAAAOGAAACABCBCACBEIAAIAAEggAgCCDQACUEQQAKsCCIAAKwEAgJGADEAACSBgECICQHAGACDAEgAGgIQAgKAA=

$$$$

 OpenBabel04131118512D

  7  7  0  0  0  0  0  0  0  0999 V2000
    2.6594   -0.9392    0.0000 O   0  0  0  0  0  0  0  0  0  0  0  0
    2.6594   -2.2707    0.0000 C   0  0  0  0  0  0  0  0  0  0  0  0
    1.3279   -2.2707    0.0000 C   0  0  0  0  0  0  0  0  0  0  0  0
    0.0000   -2.2707    0.0000 C   0  0  0  0  0  0  0  0  0  0  0  0
    1.3279   -3.5986    0.0000 C   0  0  0  0  0  0  0  0  0  0  0  0
    1.3279   -0.9392    0.0000 C   0  0  0  0  0  0  0  0  0  0  0  0
    0.3886    0.0000    0.0000 O   0  0  0  0  0  0  0  0  0  0  0  0
  1  2  1  0  0  0  0
  1  6  1  0  0  0  0
  2  3  1  0  0  0  0
  3  4  1  0  0  0  0
  3  5  1  0  0  0  0
  3  6  1  0  0  0  0
  6  7  2  0  0  0  0
M  END
>  <ActivityOutcome_CPDBAS_Rat>
active

>  <cdk:Formula>
[]

>  <TD50_Rat_mmol>
2.11

>  <net.bioclipse.cdk.fingerprint>
AIAAAAAAAAAAAAIAAAAAAAAAAAAAAACAAAAAgAAAAAAAAGAAAAAAAAAAAAAAAFAgAgAAAAAAAAAAAAJAAAAAAAAAAAAAAAAAAAAAAAAAAAAAAAAAAABAAAAQAAAAAAAAAEAAAAAAAAAAAAAAAAABAAAAAABQAAAAAAAAAAAAAA==

$$$$

 OpenBabel04131118512D

 44 48  0  0  0  0  0  0  0  0999 V2000
    7.0423   -3.7885    0.0000 C   0  0  2  0  0  0  0  0  0  0  0  0
    3.5746   -5.7286    0.0000 C   0  0  2  0  0  0  0  0  0  0  0  0
    8.3103   -3.3913    0.0000 C   0  0  1  0  0  0  0  0  0  0  0  0
    5.9425   -5.7286    0.0000 C   0  0  0  0  0  0  0  0  0  0  0  0
    7.0423   -5.0870    0.0000 C   0  0  0  0  0  0  0  0  0  0  0  0
    4.7204   -5.1175    0.0000 C   0  0  0  0  0  0  0  0  0  0  0  0
    3.5746   -7.0576    0.0000 C   0  0  0  0  0  0  0  0  0  0  0  0
    5.8813   -3.1164    0.0000 C   0  0  0  0  0  0  0  0  0  0  0  0
    4.7204   -3.8191    0.0000 C   0  0  2  0  0  0  0  0  0  0  0  0
    2.3831   -5.1175    0.0000 C   0  0  0  0  0  0  0  0  0  0  0  0
    8.3103   -2.0165    0.0000 C   0  0  0  0  0  0  0  0  0  0  0  0
    2.3831   -7.7756    0.0000 C   0  0  0  0  0  0  0  0  0  0  0  0
    9.0741   -4.3996    0.0000 C   0  0  0  0  0  0  0  0  0  0  0  0
    8.3103   -5.4536    0.0000 C   0  0  0  0  0  0  0  0  0  0  0  0
    5.9425   -7.0576    0.0000 C   0  0  0  0  0  0  0  0  0  0  0  0
    1.2068   -5.7286    0.0000 C   0  0  0  0  0  0  0  0  0  0  0  0
    1.2068   -7.0576    0.0000 C   0  0  0  0  0  0  0  0  0  0  0  0
    4.7204   -7.7756    0.0000 C   0  0  0  0  0  0  0  0  0  0  0  0
   11.7780   -1.3443    0.0000 C   0  0  0  0  0  0  0  0  0  0  0  0
   11.9307   -7.8214    0.0000 C   0  0  0  0  0  0  0  0  0  0  0  0
   11.9307   -9.1505    0.0000 N   0  0  0  0  0  0  0  0  0  0  0  0
    9.4560   -1.3443    0.0000 C   0  0  0  0  0  0  0  0  0  0  0  0
    7.0729   -1.3290    0.0000 O   0  0  0  0  0  0  0  0  0  0  0  0
   10.6017   -2.0470    0.0000 O   0  0  0  0  0  0  0  0  0  0  0  0
   11.7780    0.0000    0.0000 O   0  0  0  0  0  0  0  0  0  0  0  0
    0.0000   -7.7756    0.0000 O   0  0  0  0  0  0  0  0  0  0  0  0
    9.4407   -3.3913    0.0000 O   0  0  0  0  0  0  0  0  0  0  0  0
   13.0765   -7.1493    0.0000 C   0  0  0  0  0  0  0  0  0  0  0  0
   10.7697   -7.1493    0.0000 C   0  0  0  0  0  0  0  0  0  0  0  0
    7.0423   -2.4595    0.0000 C   0  0  0  0  0  0  0  0  0  0  0  0
    3.5594   -3.1164    0.0000 O   0  0  0  0  0  0  0  0  0  0  0  0
    3.5746   -4.3996    0.0000 C   0  0  0  0  0  0  0  0  0  0  0  0
   13.0765   -5.8355    0.0000 C   0  0  0  0  0  0  0  0  0  0  0  0
   10.7697   -5.8202    0.0000 C   0  0  0  0  0  0  0  0  0  0  0  0
   11.9307   -5.1481    0.0000 C   0  0  0  0  0  0  0  0  0  0  0  0
    8.5089   -9.8379    0.0000 Cl  0  0  0  0  0  0  0  0  0  0  0  0
   15.2762   -9.6851    0.0000 Cl  0  0  0  0  0  0  0  0  0  0  0  0
   13.0459   -1.9706    0.0000 C   0  0  0  0  0  0  0  0  0  0  0  0
   13.0459   -3.2844    0.0000 C   0  0  0  0  0  0  0  0  0  0  0  0
   13.0765   -9.8073    0.0000 C   0  0  0  0  0  0  0  0  0  0  0  0
   10.7850   -9.8226    0.0000 C   0  0  0  0  0  0  0  0  0  0  0  0
   11.9307   -3.8191    0.0000 C   0  0  0  0  0  0  0  0  0  0  0  0
   14.2222   -9.0741    0.0000 C   0  0  0  0  0  0  0  0  0  0  0  0
    9.6393   -9.1657    0.0000 C   0  0  0  0  0  0  0  0  0  0  0  0
  1  3  1  0  0  0  0
  1  5  1  0  0  0  0
  1  8  1  0  0  0  0
  1 30  1  1  0  0  0
  2  6  1  0  0  0  0
  2  7  1  0  0  0  0
  2 10  1  0  0  0  0
  2 32  1  1  0  0  0
  3 11  1  1  0  0  0
  3 13  1  0  0  0  0
  3 27  1  6  0  0  0
  4  5  1  0  0  0  0
  4 15  1  0  0  0  0
  4  6  1  0  0  0  0
  5 14  1  0  0  0  0
  6  9  1  0  0  0  0
  7 12  2  0  0  0  0
  7 18  1  0  0  0  0
  8  9  1  0  0  0  0
  9 31  1  1  0  0  0
 10 16  2  0  0  0  0
 11 22  1  0  0  0  0
 11 23  2  0  0  0  0
 12 17  1  0  0  0  0
 13 14  1  0  0  0  0
 15 18  1  0  0  0  0
 16 17  1  0  0  0  0
 17 26  2  0  0  0  0
 19 24  1  0  0  0  0
 19 25  2  0  0  0  0
 19 38  1  0  0  0  0
 20 29  1  0  0  0  0
 20 21  1  0  0  0  0
 20 28  2  0  0  0  0
 21 40  1  0  0  0  0
 21 41  1  0  0  0  0
 22 24  1  0  0  0  0
 28 33  1  0  0  0  0
 29 34  2  0  0  0  0
 33 35  2  0  0  0  0
 34 35  1  0  0  0  0
 35 42  1  0  0  0  0
 36 44  1  0  0  0  0
 37 43  1  0  0  0  0
 38 39  1  0  0  0  0
 39 42  1  0  0  0  0
 40 43  1  0  0  0  0
 41 44  1  0  0  0  0
M  END
>  <ActivityOutcome_CPDBAS_Rat>
active

>  <cdk:Formula>
[]

>  <TD50_Rat_mmol>
0.0297

>  <net.bioclipse.cdk.fingerprint>
AMCQIAABAQEqIAASFQBEABAsAgKABEBFwQAAAMAFQAIJUQjgAIAGAAAEAQEgEQHQpCImQAJIEgBCABAgxEQEAUAFCAkEQhGCFAUUAEaAEZAAAAQBAQAEQACBEAAAAIIAIQBIBUAgQAEgIAACQBAEAZAAHAiE9DiEAoABQFYiMCA=

$$$$

 OpenBabel04131118512D

 26 29  0  0  0  0  0  0  0  0999 V2000
    6.9411   -2.4647    0.0000 C   0  0  2  0  0  0  0  0  0  0  0  0
    3.4969   -4.4448    0.0000 C   0  0  2  0  0  0  0  0  0  0  0  0
    8.2261   -2.0644    0.0000 C   0  0  1  0  0  0  0  0  0  0  0  0
    5.8035   -4.4553    0.0000 C   0  0  0  0  0  0  0  0  0  0  0  0
    6.9411   -3.8023    0.0000 C   0  0  0  0  0  0  0  0  0  0  0  0
    4.6555   -3.7813    0.0000 C   0  0  0  0  0  0  0  0  0  0  0  0
    3.4969   -5.7719    0.0000 C   0  0  0  0  0  0  0  0  0  0  0  0
    5.8035   -1.8116    0.0000 C   0  0  0  0  0  0  0  0  0  0  0  0
    4.6555   -2.4647    0.0000 C   0  0  2  0  0  0  0  0  0  0  0  0
    2.3277   -3.7813    0.0000 C   0  0  0  0  0  0  0  0  0  0  0  0
    2.3277   -6.4355    0.0000 C   0  0  0  0  0  0  0  0  0  0  0  0
    8.2261   -0.7162    0.0000 C   0  0  0  0  0  0  0  0  0  0  0  0
    8.9739   -3.1282    0.0000 C   0  0  0  0  0  0  0  0  0  0  0  0
    8.2261   -4.2026    0.0000 C   0  0  0  0  0  0  0  0  0  0  0  0
    5.8035   -5.7509    0.0000 C   0  0  0  0  0  0  0  0  0  0  0  0
    1.1902   -4.4553    0.0000 C   0  0  0  0  0  0  0  0  0  0  0  0
    1.1902   -5.7509    0.0000 C   0  0  0  0  0  0  0  0  0  0  0  0
    4.6555   -6.4355    0.0000 C   0  0  0  0  0  0  0  0  0  0  0  0
    7.0991    0.0000    0.0000 O   0  0  0  0  0  0  0  0  0  0  0  0
    0.0000   -6.4144    0.0000 O   0  0  0  0  0  0  0  0  0  0  0  0
    9.4795   -1.6852    0.0000 O   0  0  0  0  0  0  0  0  0  0  0  0
    6.9411   -1.1375    0.0000 C   0  0  0  0  0  0  0  0  0  0  0  0
    3.4653   -1.8011    0.0000 O   0  0  0  0  0  0  0  0  0  0  0  0
    3.4969   -3.1072    0.0000 C   0  0  0  0  0  0  0  0  0  0  0  0
    9.3952   -0.0843    0.0000 C   0  0  0  0  0  0  0  0  0  0  0  0
   10.5327   -0.8321    0.0000 O   0  0  0  0  0  0  0  0  0  0  0  0
  1  3  1  0  0  0  0
  1  5  1  0  0  0  0
  1  8  1  0  0  0  0
  1 22  1  1  0  0  0
  2  6  1  0  0  0  0
  2  7  1  0  0  0  0
  2 10  1  0  0  0  0
  2 24  1  1  0  0  0
  3 12  1  1  0  0  0
  3 13  1  0  0  0  0
  3 21  1  6  0  0  0
  4  5  1  0  0  0  0
  4 15  1  0  0  0  0
  4  6  1  0  0  0  0
  5 14  1  0  0  0  0
  6  9  1  0  0  0  0
  7 11  2  0  0  0  0
  7 18  1  0  0  0  0
  8  9  1  0  0  0  0
  9 23  1  1  0  0  0
 10 16  2  0  0  0  0
 11 17  1  0  0  0  0
 12 19  2  0  0  0  0
 12 25  1  0  0  0  0
 13 14  1  0  0  0  0
 15 18  1  0  0  0  0
 16 17  1  0  0  0  0
 17 20  2  0  0  0  0
 25 26  1  0  0  0  0
M  END
>  <ActivityOutcome_CPDBAS_Rat>
active

>  <cdk:Formula>
[]

>  <TD50_Rat_mmol>
0.00424

>  <net.bioclipse.cdk.fingerprint>
QAAAAAEAAAAgAAIVAAQAAAAAAoAEQABAAAAAQAEAAAFRCOAAAAIAAAABACAQARAgICIAAAgQAAAAECBEQAQAAAAAAQRAAAAAARQAAAABAAAAAAAAAAAAAAAQAAAAAAABAEAAAABAACAAAAAAEAQBkAAAAACwOAAAAAFAViAAIA==

$$$$

 OpenBabel04131118512D

 16 16  0  0  0  0  0  0  0  0999 V2000
    0.0000   -2.6624    0.0000 C   0  0  0  0  0  0  0  0  0  0  0  0
    1.1499   -1.9994    0.0000 N   0  0  0  0  0  0  0  0  0  0  0  0
    1.1499   -0.6630    0.0000 N   0  0  0  0  0  0  0  0  0  0  0  0
    2.2998    0.0000    0.0000 C   0  0  0  0  0  0  0  0  0  0  0  0
    3.4497   -0.6630    0.0000 C   0  0  0  0  0  0  0  0  0  0  0  0
    4.5996    0.0000    0.0000 C   0  0  0  0  0  0  0  0  0  0  0  0
    5.7599   -0.6630    0.0000 C   0  0  0  0  0  0  0  0  0  0  0  0
    5.7599   -1.9994    0.0000 C   0  0  0  0  0  0  0  0  0  0  0  0
    4.5996   -2.6624    0.0000 C   0  0  0  0  0  0  0  0  0  0  0  0
    3.4497   -1.9994    0.0000 C   0  0  0  0  0  0  0  0  0  0  0  0
    6.9098   -2.6624    0.0000 C   0  0  0  0  0  0  0  0  0  0  0  0
    6.9098   -3.9884    0.0000 O   0  0  0  0  0  0  0  0  0  0  0  0
    8.0597   -1.9994    0.0000 N   0  0  0  0  0  0  0  0  0  0  0  0
    9.2096   -2.6624    0.0000 C   0  0  0  0  0  0  0  0  0  0  0  0
   10.3595   -1.9994    0.0000 C   0  0  0  0  0  0  0  0  0  0  0  0
    9.2096   -3.9884    0.0000 C   0  0  0  0  0  0  0  0  0  0  0  0
  1  2  1  0  0  0  0
  2  3  1  0  0  0  0
  3  4  1  0  0  0  0
  4  5  1  0  0  0  0
  5  6  2  0  0  0  0
  5 10  1  0  0  0  0
  6  7  1  0  0  0  0
  7  8  2  0  0  0  0
  8  9  1  0  0  0  0
  8 11  1  0  0  0  0
  9 10  2  0  0  0  0
 11 12  2  0  0  0  0
 11 13  1  0  0  0  0
 13 14  1  0  0  0  0
 14 15  1  0  0  0  0
 14 16  1  0  0  0  0
M  END
>  <ActivityOutcome_CPDBAS_Rat>
active

>  <cdk:Formula>
[]

>  <TD50_Rat_mmol>
0.0181

>  <net.bioclipse.cdk.fingerprint>
AQAQAAAAAIBCEIAAAACIAAAgAAAAAAAIAgAAAhAAAGQAAABoAAAAFAAAAAAAAAEAIEAABAACAABAAAAAwAAAMIAUAAACAAAAQAAAABAIAIAAgAAAAAAAAAWAAAAAAIAAIABAJEAgAAAAAAACSAAACEAAAhCAUghAAQAAAAADAAA=

$$$$

 OpenBabel04131118512D

  7  7  0  0  0  0  0  0  0  0999 V2000
    1.1893   -3.1857    0.0000 O   0  0  0  0  0  0  0  0  0  0  0  0
    1.3310   -1.8647    0.0000 S   0  0  0  0  0  0  0  0  0  0  0  0
    0.0000   -1.8647    0.0000 O   0  0  0  0  0  0  0  0  0  0  0  0
    1.1893   -0.5403    0.0000 C   0  0  0  0  0  0  0  0  0  0  0  0
    2.4049    0.0000    0.0000 C   0  0  0  0  0  0  0  0  0  0  0  0
    3.2944   -0.9883    0.0000 C   0  0  0  0  0  0  0  0  0  0  0  0
    2.6290   -2.1414    0.0000 O   0  0  0  0  0  0  0  0  0  0  0  0
  1  2  2  0  0  0  0
  2  3  2  0  0  0  0
  2  4  1  0  0  0  0
  2  7  1  0  0  0  0
  4  5  1  0  0  0  0
  5  6  1  0  0  0  0
  6  7  1  0  0  0  0
M  END
>  <ActivityOutcome_CPDBAS_Rat>
active

>  <cdk:Formula>
[]

>  <TD50_Rat_mmol>
0.0314

>  <net.bioclipse.cdk.fingerprint>
EAAAAAAAAACCAAAAAAAAAAAAAAAAAAAAAAAAABAAAAFkAABAAAAAAAAAAAAQIAAAAAAAAAAAAAAAQAAAAAAAAAAAABGAAAAAACAAgABAAAACgAAAAAABEAAAAAAAAIAAAAABAAgAAAAAAAAQAAAgAAAAACAQQAAAAAAAABA=

$$$$

 OpenBabel04131118512D

  5  5  0  0  0  0  0  0  0  0999 V2000
    0.0000   -0.9406    0.0000 O   0  0  0  0  0  0  0  0  0  0  0  0
    1.3291   -0.9406    0.0000 C   0  0  0  0  0  0  0  0  0  0  0  0
    2.2697    0.0000    0.0000 C   0  0  0  0  0  0  0  0  0  0  0  0
    3.2103   -0.9406    0.0000 C   0  0  0  0  0  0  0  0  0  0  0  0
    2.2697   -1.8812    0.0000 O   0  0  0  0  0  0  0  0  0  0  0  0
  1  2  2  0  0  0  0
  2  3  1  0  0  0  0
  2  5  1  0  0  0  0
  3  4  1  0  0  0  0
  4  5  1  0  0  0  0
M  END
>  <ActivityOutcome_CPDBAS_Rat>
active

>  <cdk:Formula>
[]

>  <TD50_Rat_mmol>
0.0203

>  <net.bioclipse.cdk.fingerprint>
AgAAAAAAAAAAAAAAAIAAAACAAAAAAAAAYAAAAAAAAAAAAAAAUCACAAAAAAAAAAAAAkAAAAAAAAAAAAAAAAAAAAAAAAAAAAAAAAAAAAAAABAAAAAAAAAAQAAAAAAAAAAAAAAAAAEAAAAAAFAAAAAAAAAAAAAA

$$$$

 OpenBabel04131118512D

 12 11  0  0  0  0  0  0  0  0999 V2000
    3.9893   -3.4539    0.0000 N   0  0  0  0  0  0  0  0  0  0  0  0
    2.6595   -3.4539    0.0000 C   0  0  0  0  0  0  0  0  0  0  0  0
    1.9918   -4.6053    0.0000 N   0  0  0  0  0  0  0  0  0  0  0  0
    2.6595   -5.7566    0.0000 C   0  0  0  0  0  0  0  0  0  0  0  0
    3.9893   -5.7566    0.0000 C   0  0  0  0  0  0  0  0  0  0  0  0
    4.6513   -4.6053    0.0000 C   0  0  0  0  0  0  0  0  0  0  0  0
    0.6620   -4.6053    0.0000 N   0  0  0  0  0  0  0  0  0  0  0  0
    0.0000   -3.4539    0.0000 O   0  0  0  0  0  0  0  0  0  0  0  0
    1.9918   -2.3026    0.0000 N   0  0  0  0  0  0  0  0  0  0  0  0
    2.6595   -1.1513    0.0000 N   0  3  0  0  0  0  0  0  0  0  0  0
    1.9918    0.0000    0.0000 O   0  0  0  0  0  0  0  0  0  0  0  0
    3.9893   -1.1513    0.0000 O   0  5  0  0  0  0  0  0  0  0  0  0
  1  2  2  0  0  0  0
  2  3  1  0  0  0  0
  2  9  1  0  0  0  0
  3  4  1  0  0  0  0
  3  7  1  0  0  0  0
  4  5  1  0  0  0  0
  5  6  1  0  0  0  0
  7  8  2  0  0  0  0
  9 10  1  0  0  0  0
 10 11  2  0  0  0  0
 10 12  1  0  0  0  0
M  CHG  2  10   1  12  -1
M  END
>  <ActivityOutcome_CPDBAS_Rat>
active

>  <cdk:Formula>
[]

>  <TD50_Rat_mmol>
0.00748

>  <net.bioclipse.cdk.fingerprint>
CABAAGIQAEgAAYAAAAAAAACQAAAAgAAAAAAABAUgIGAAAAOACAAAAAAAAABiAEFABkAAAAAAAADAAAAAAAAAAAEAAAAAAAAAAAAAgAAIBAAgAAAAAAAAIgAAAAAAABQgAAAACAAAAAAAAAAAAAAAAAAAAAAAAAAAAAMAAA==

$$$$

 OpenBabel04131118512D

  9  8  0  0  0  0  0  0  0  0999 V2000
    0.0000   -1.9953    0.0000 O   0  0  0  0  0  0  0  0  0  0  0  0
    1.1520   -2.6588    0.0000 N   0  0  0  0  0  0  0  0  0  0  0  0
    2.3040   -1.9953    0.0000 N   0  0  0  0  0  0  0  0  0  0  0  0
    2.3040   -0.6635    0.0000 C   0  0  0  0  0  0  0  0  0  0  0  0
    1.1520    0.0000    0.0000 O   0  0  0  0  0  0  0  0  0  0  0  0
    3.4560    0.0000    0.0000 N   0  0  0  0  0  0  0  0  0  0  0  0
    3.4560   -2.6588    0.0000 C   0  0  0  0  0  0  0  0  0  0  0  0
    4.6080   -1.9953    0.0000 C   0  0  0  0  0  0  0  0  0  0  0  0
    4.6080   -0.6635    0.0000 C   0  0  0  0  0  0  0  0  0  0  0  0
  1  2  2  0  0  0  0
  2  3  1  0  0  0  0
  3  4  1  0  0  0  0
  3  7  1  0  0  0  0
  4  5  2  0  0  0  0
  4  6  1  0  0  0  0
  7  8  1  0  0  0  0
  8  9  1  0  0  0  0
M  END
>  <ActivityOutcome_CPDBAS_Rat>
active

>  <cdk:Formula>
[]

>  <TD50_Rat_mmol>
0.0287

>  <net.bioclipse.cdk.fingerprint>
AhAASAABgAAAAAAAABAAAAAAAAAAAAAEBQAAYAAAAoAAAAAAAAABACAAQQACAAAAAAAAAMAAAAKAAAAAAAAAAAAAAAAAAACAAAAAACAAAAAAAAAAAAAAAAAARCAAAAAIAAAAAAAAAAAAAAAAAEAAAAAAAAAAAwAA

$$$$

 OpenBabel04131118512D

  4  4  0  0  0  0  0  0  0  0999 V2000
    0.0000   -0.6651    0.0000 C   0  0  0  0  0  0  0  0  0  0  0  0
    1.3302   -0.6651    0.0000 C   0  0  0  0  0  0  0  0  0  0  0  0
    2.4817    0.0000    0.0000 C   0  0  0  0  0  0  0  0  0  0  0  0
    2.4817   -1.3302    0.0000 O   0  0  0  0  0  0  0  0  0  0  0  0
  1  2  1  0  0  0  0
  2  3  1  0  0  0  0
  2  4  1  0  0  0  0
  3  4  1  0  0  0  0
M  END
>  <ActivityOutcome_CPDBAS_Rat>
active

>  <cdk:Formula>
[]

>  <TD50_Rat_mmol>
1.28

>  <net.bioclipse.cdk.fingerprint>
AgAAAAAAAAAAAAAAAIAAAAAAAAAAAAAAYAAAAAAAAAAAAAAAECACAAAAAAAAAAAAAEAAAAAAAAAAAAAAAAAAAAAAAAAAAAAAAAAAAAAAABAAAAAAAAAAAAAAAAAAAAAAAAAAAAAAAAAAAAAAAAAAAAAAAAAA

$$$$

 OpenBabel04131118512D

 11 11  0  0  0  0  0  0  0  0999 V2000
    2.3019    0.0000    0.0000 O   0  0  0  0  0  0  0  0  0  0  0  0
    2.3019   -1.3272    0.0000 C   0  0  0  0  0  0  0  0  0  0  0  0
    3.4563   -1.9908    0.0000 C   0  0  0  0  0  0  0  0  0  0  0  0
    3.4563   -3.3250    0.0000 C   0  0  0  0  0  0  0  0  0  0  0  0
    2.3019   -3.9886    0.0000 N   0  0  0  0  0  0  0  0  0  0  0  0
    1.1544   -3.3250    0.0000 C   0  0  0  0  0  0  0  0  0  0  0  0
    0.0000   -3.9886    0.0000 S   0  0  0  0  0  0  0  0  0  0  0  0
    1.1544   -1.9908    0.0000 N   0  0  0  0  0  0  0  0  0  0  0  0
    4.6107   -3.9886    0.0000 C   0  0  0  0  0  0  0  0  0  0  0  0
    5.7582   -3.3250    0.0000 C   0  0  0  0  0  0  0  0  0  0  0  0
    6.9126   -3.9886    0.0000 C   0  0  0  0  0  0  0  0  0  0  0  0
  1  2  2  0  0  0  0
  2  3  1  0  0  0  0
  2  8  1  0  0  0  0
  3  4  2  0  0  0  0
  4  5  1  0  0  0  0
  4  9  1  0  0  0  0
  5  6  1  0  0  0  0
  6  7  2  0  0  0  0
  6  8  1  0  0  0  0
  9 10  1  0  0  0  0
 10 11  1  0  0  0  0
M  END
>  <ActivityOutcome_CPDBAS_Rat>
active

>  <cdk:Formula>
[]

>  <TD50_Rat_mmol>
0.0805

>  <net.bioclipse.cdk.fingerprint>
QUAgAAAAAAACEABIAAMQQAAAAAAABEAAAAAAAkAAAAACABFgAAAAgIACIAAAiABAIABAACEAEAoAACoAwAAAQIAAAAEFQABBAQAAAAAAAIAAAAAAIIhAAAAQAAAAEAQogABgQAABAAAAAgAgABAAACAAQAAE9IgAAEAJUAgCIAA=

$$$$

 OpenBabel04131118512D

 19 21  0  0  0  0  0  0  0  0999 V2000
    4.6079   -3.3329    0.0000 C   0  0  0  0  0  0  0  0  0  0  0  0
    4.6079   -2.0013    0.0000 C   0  0  0  0  0  0  0  0  0  0  0  0
    3.4620   -3.9865    0.0000 C   0  0  0  0  0  0  0  0  0  0  0  0
    3.4620   -1.3315    0.0000 C   0  0  0  0  0  0  0  0  0  0  0  0
    2.3080   -3.3329    0.0000 C   0  0  0  0  0  0  0  0  0  0  0  0
    2.3080   -2.0013    0.0000 C   0  0  0  0  0  0  0  0  0  0  0  0
    5.7458   -3.9865    0.0000 C   0  0  0  0  0  0  0  0  0  0  0  0
    5.7458   -1.3315    0.0000 C   0  0  0  0  0  0  0  0  0  0  0  0
    6.8998   -3.3329    0.0000 C   0  0  0  0  0  0  0  0  0  0  0  0
    6.8998   -2.0013    0.0000 C   0  0  0  0  0  0  0  0  0  0  0  0
    3.4620    0.0000    0.0000 O   0  0  0  0  0  0  0  0  0  0  0  0
    3.4620   -5.3181    0.0000 O   0  0  0  0  0  0  0  0  0  0  0  0
    5.7458   -5.3181    0.0000 O   0  0  0  0  0  0  0  0  0  0  0  0
    5.7458    0.0000    0.0000 O   0  0  0  0  0  0  0  0  0  0  0  0
    8.0699   -1.3154    0.0000 O   0  0  0  0  0  0  0  0  0  0  0  0
    1.1540   -3.9865    0.0000 C   0  0  0  0  0  0  0  0  0  0  0  0
    1.1540   -1.3315    0.0000 C   0  0  0  0  0  0  0  0  0  0  0  0
    0.0000   -2.0013    0.0000 C   0  0  0  0  0  0  0  0  0  0  0  0
    0.0000   -3.3329    0.0000 C   0  0  0  0  0  0  0  0  0  0  0  0
  1  2  2  0  0  0  0
  1  3  1  0  0  0  0
  1  7  1  0  0  0  0
  2  4  1  0  0  0  0
  2  8  1  0  0  0  0
  3  5  1  0  0  0  0
  3 12  2  0  0  0  0
  4 11  2  0  0  0  0
  4  6  1  0  0  0  0
  5  6  2  0  0  0  0
  5 16  1  0  0  0  0
  6 17  1  0  0  0  0
  7  9  2  0  0  0  0
  7 13  1  0  0  0  0
  8 14  1  0  0  0  0
  8 10  2  0  0  0  0
  9 10  1  0  0  0  0
 10 15  1  0  0  0  0
 16 19  2  0  0  0  0
 17 18  2  0  0  0  0
 18 19  1  0  0  0  0
M  END
>  <ActivityOutcome_CPDBAS_Rat>
active

>  <cdk:Formula>
[]

>  <TD50_Rat_mmol>
2.65

>  <net.bioclipse.cdk.fingerprint>
CAAAAAAAAYGCAIgAABABACAAAAAAAAAAAAAARAh4AAJpAQBDhIoAAAFCAAEAIAQEIAABAABAAQIQQAAAAAQGCAAABABDCAAAIAAAYoAIEQAAwACAAACAAAAACIAAIABKAEAgIAACAAAGQCAEECAAFACAEAhBKAAAAAAAAAA=

$$$$

 OpenBabel04131118512D

  6  6  0  0  0  0  0  0  0  0999 V2000
    2.3036   -1.9950    0.0000 N   0  0  0  0  0  0  0  0  0  0  0  0
    1.1518   -2.6600    0.0000 C   0  0  0  0  0  0  0  0  0  0  0  0
    0.0000   -1.9950    0.0000 C   0  0  0  0  0  0  0  0  0  0  0  0
    0.0000   -0.6650    0.0000 C   0  0  0  0  0  0  0  0  0  0  0  0
    1.1518    0.0000    0.0000 C   0  0  0  0  0  0  0  0  0  0  0  0
    2.3036   -0.6650    0.0000 C   0  0  0  0  0  0  0  0  0  0  0  0
  1  2  2  0  0  0  0
  1  6  1  0  0  0  0
  2  3  1  0  0  0  0
  3  4  2  0  0  0  0
  4  5  1  0  0  0  0
  5  6  2  0  0  0  0
M  END
>  <ActivityOutcome_CPDBAS_Rat>
active

>  <cdk:Formula>
[]

>  <TD50_Rat_mmol>
0.851

>  <net.bioclipse.cdk.fingerprint>
AgCQAgAAAAAMAAAAAAAAAAAAAAAAAAAAAAAACAAAAABgAAAAAAAAAAAAAAAIAAAAAAAAAABAAAAAAAAAAAEAAAAAAAAAAAAAAAAAAAAAgAAAAAAAAAAAIAAAAAAAIAAAAAAgAAAAAAAAAAAAAAAAAACAAAAAAAAAAAAAAAA=

$$$$

 OpenBabel04131118512D

 22 24  0  0  0  0  0  0  0  0999 V2000
    4.6008    0.0000    0.0000 O   0  0  0  0  0  0  0  0  0  0  0  0
    4.6008   -1.3264    0.0000 C   0  0  0  0  0  0  0  0  0  0  0  0
    3.4506   -1.9895    0.0000 C   0  0  0  0  0  0  0  0  0  0  0  0
    3.4506   -3.3159    0.0000 C   0  0  0  0  0  0  0  0  0  0  0  0
    2.3004   -3.9894    0.0000 C   0  0  0  0  0  0  0  0  0  0  0  0
    1.1502   -3.3159    0.0000 C   0  0  0  0  0  0  0  0  0  0  0  0
    1.1502   -1.9895    0.0000 C   0  0  0  0  0  0  0  0  0  0  0  0
    2.3004   -1.3264    0.0000 C   0  0  0  0  0  0  0  0  0  0  0  0
    2.3004    0.0000    0.0000 O   0  0  0  0  0  0  0  0  0  0  0  0
    0.0000   -3.9894    0.0000 O   0  0  0  0  0  0  0  0  0  0  0  0
    4.6008   -3.9894    0.0000 O   0  0  0  0  0  0  0  0  0  0  0  0
    5.7614   -3.3159    0.0000 C   0  0  0  0  0  0  0  0  0  0  0  0
    5.7614   -1.9895    0.0000 C   0  0  0  0  0  0  0  0  0  0  0  0
    6.9115   -1.3264    0.0000 O   0  0  0  0  0  0  0  0  0  0  0  0
    6.9115   -3.9894    0.0000 C   0  0  0  0  0  0  0  0  0  0  0  0
    8.0617   -3.3159    0.0000 C   0  0  0  0  0  0  0  0  0  0  0  0
    9.2119   -3.9894    0.0000 C   0  0  0  0  0  0  0  0  0  0  0  0
    9.2119   -5.3158    0.0000 C   0  0  0  0  0  0  0  0  0  0  0  0
    8.0617   -5.9790    0.0000 C   0  0  0  0  0  0  0  0  0  0  0  0
    6.9115   -5.3158    0.0000 C   0  0  0  0  0  0  0  0  0  0  0  0
   10.3621   -5.9790    0.0000 O   0  0  0  0  0  0  0  0  0  0  0  0
   10.3621   -3.3159    0.0000 O   0  0  0  0  0  0  0  0  0  0  0  0
  1  2  2  0  0  0  0
  2  3  1  0  0  0  0
  2 13  1  0  0  0  0
  3  4  2  0  0  0  0
  3  8  1  0  0  0  0
  4  5  1  0  0  0  0
  4 11  1  0  0  0  0
  5  6  2  0  0  0  0
  6  7  1  0  0  0  0
  6 10  1  0  0  0  0
  7  8  2  0  0  0  0
  8  9  1  0  0  0  0
 11 12  1  0  0  0  0
 12 13  2  0  0  0  0
 12 15  1  0  0  0  0
 13 14  1  0  0  0  0
 15 16  2  0  0  0  0
 15 20  1  0  0  0  0
 16 17  1  0  0  0  0
 17 18  2  0  0  0  0
 17 22  1  0  0  0  0
 18 19  1  0  0  0  0
 18 21  1  0  0  0  0
 19 20  2  0  0  0  0
M  END
>  <ActivityOutcome_CPDBAS_Rat>
active

>  <cdk:Formula>
[]

>  <TD50_Rat_mmol>
0.0334

>  <net.bioclipse.cdk.fingerprint>
QkICAZAAQAUAAIACAjAQVRCBoABQjCBAgARMkCEIQBDqoIJpAEQCjIgIAkhgEAAQIBZEIEiAGCBICQAI4EgEAhgPmAklwggTCSAABBIoBIEAFsRIAAUIAliAcAAAAsICIIBKCNAgbSBBCBCGTEgMCsKIPVCEMghAaQNAICAiQBE=

$$$$

 OpenBabel04131118512D

 10 10  0  0  0  0  0  0  0  0999 V2000
    0.0000   -2.3021    0.0000 O   0  0  0  0  0  0  0  0  0  0  0  0
    0.6654   -1.1511    0.0000 N   0  0  0  0  0  0  0  0  0  0  0  0
    1.9961   -1.1511    0.0000 C   0  0  0  0  0  0  0  0  0  0  0  0
    2.6614    0.0000    0.0000 C   0  0  0  0  0  0  0  0  0  0  0  0
    3.9921    0.0000    0.0000 C   0  0  0  0  0  0  0  0  0  0  0  0
    4.6575   -1.1511    0.0000 C   0  0  0  0  0  0  0  0  0  0  0  0
    5.9882   -1.1511    0.0000 N   0  0  0  0  0  0  0  0  0  0  0  0
    6.6535   -2.3021    0.0000 O   0  0  0  0  0  0  0  0  0  0  0  0
    3.9921   -2.3021    0.0000 C   0  0  0  0  0  0  0  0  0  0  0  0
    2.6614   -2.3021    0.0000 C   0  0  0  0  0  0  0  0  0  0  0  0
  1  2  1  0  0  0  0
  2  3  2  0  0  0  0
  3  4  1  0  0  0  0
  3 10  1  0  0  0  0
  4  5  2  0  0  0  0
  5  6  1  0  0  0  0
  6  7  2  0  0  0  0
  6  9  1  0  0  0  0
  7  8  1  0  0  0  0
  9 10  2  0  0  0  0
M  END
>  <ActivityOutcome_CPDBAS_Rat>
active

>  <cdk:Formula>
[]

>  <TD50_Rat_mmol>
0.767

>  <net.bioclipse.cdk.fingerprint>
QAAAAABAAAgAAQgAAAAAAAAAAIAEAAAABAAAAAAAAAAAAGAAAAAAAAAAgAAAAAAgIAAAAAAQAAAAAAJAAAAAAAQAAAQAAAAAAAAAIAAAAAAAAQABAAAAAAAAAAAAAAABAAAAAAIAAAAAAAAAAICAAAAAAgAACAAAAAAAACAAAA==

$$$$

 OpenBabel04131118512D

 23 25  0  0  0  0  0  0  0  0999 V2000
    4.6031    0.0000    0.0000 O   0  0  0  0  0  0  0  0  0  0  0  0
    3.4523   -0.6635    0.0000 C   0  0  0  0  0  0  0  0  0  0  0  0
    2.3015    0.0000    0.0000 C   0  0  0  0  0  0  0  0  0  0  0  0
    1.1508   -0.6635    0.0000 C   0  0  0  0  0  0  0  0  0  0  0  0
    1.1508   -1.9905    0.0000 C   0  0  0  0  0  0  0  0  0  0  0  0
    2.3015   -2.6644    0.0000 C   0  0  0  0  0  0  0  0  0  0  0  0
    3.4523   -1.9905    0.0000 C   0  0  0  0  0  0  0  0  0  0  0  0
    4.6031   -2.6644    0.0000 N   0  0  0  0  0  0  0  0  0  0  0  0
    5.7642   -1.9905    0.0000 N   0  0  0  0  0  0  0  0  0  0  0  0
    6.9150   -2.6644    0.0000 C   0  0  0  0  0  0  0  0  0  0  0  0
    8.0658   -1.9905    0.0000 C   0  0  0  0  0  0  0  0  0  0  0  0
    9.2165   -2.6644    0.0000 C   0  0  0  0  0  0  0  0  0  0  0  0
    9.2165   -3.9914    0.0000 C   0  0  0  0  0  0  0  0  0  0  0  0
    8.0658   -4.6549    0.0000 C   0  0  0  0  0  0  0  0  0  0  0  0
    6.9150   -3.9914    0.0000 C   0  0  0  0  0  0  0  0  0  0  0  0
   10.3673   -4.6549    0.0000 C   0  0  0  0  0  0  0  0  0  0  0  0
    8.0658   -0.6635    0.0000 N   0  3  0  0  0  0  0  0  0  0  0  0
    6.9150    0.0000    0.0000 O   0  0  0  0  0  0  0  0  0  0  0  0
    9.2165    0.0000    0.0000 O   0  5  0  0  0  0  0  0  0  0  0  0
    2.3015   -3.9914    0.0000 C   0  0  0  0  0  0  0  0  0  0  0  0
    1.1508   -4.6549    0.0000 C   0  0  0  0  0  0  0  0  0  0  0  0
    0.0000   -3.9914    0.0000 C   0  0  0  0  0  0  0  0  0  0  0  0
    0.0000   -2.6644    0.0000 C   0  0  0  0  0  0  0  0  0  0  0  0
  1  2  1  0  0  0  0
  2  3  2  0  0  0  0
  2  7  1  0  0  0  0
  3  4  1  0  0  0  0
  4  5  2  0  0  0  0
  5  6  1  0  0  0  0
  5 23  1  0  0  0  0
  6  7  2  0  0  0  0
  6 20  1  0  0  0  0
  7  8  1  0  0  0  0
  8  9  2  0  0  0  0
  9 10  1  0  0  0  0
 10 11  2  0  0  0  0
 10 15  1  0  0  0  0
 11 12  1  0  0  0  0
 11 17  1  0  0  0  0
 12 13  2  0  0  0  0
 13 14  1  0  0  0  0
 13 16  1  0  0  0  0
 14 15  2  0  0  0  0
 17 18  2  0  0  0  0
 17 19  1  0  0  0  0
 20 21  2  0  0  0  0
 21 22  1  0  0  0  0
 22 23  2  0  0  0  0
M  CHG  2  17   1  19  -1
M  END
>  <ActivityOutcome_CPDBAS_Rat>
active

>  <cdk:Formula>
[]

>  <TD50_Rat_mmol>
3.81

>  <net.bioclipse.cdk.fingerprint>
QAAAABACQAAoAIAKCAAQAYIIAAABABhBAABgCAAEAAYBAAJpEUQAAAAAAEAgAIAAIAAQIAIAAABCBAACCIAAEBCMAAIQAJAAoIAAAQAAgIEAAIAAAAAgAIDgAAAAEIQAIAAEgEAgKAAgQCACQIAACADAAACAAgIAYAAQACAjMAA=

$$$$

 OpenBabel04131118512D

 44 49  0  0  0  0  0  0  0  0999 V2000
    5.4267   -2.0763    0.0000 C   0  0  0  0  0  0  0  0  0  0  0  0
    4.4043   -2.6268    0.0000 N   0  0  0  0  0  0  0  0  0  0  0  0
    5.4267   -0.7236    0.0000 C   0  0  0  0  0  0  0  0  0  0  0  0
    7.7075   -6.0402    0.0000 C   0  0  1  0  0  0  0  0  0  0  0  0
    7.7075   -4.7346    0.0000 C   0  0  0  0  0  0  0  0  0  0  0  0
    6.5750   -2.7370    0.0000 C   0  0  0  0  0  0  0  0  0  0  0  0
    7.7075   -2.0763    0.0000 N   0  0  0  0  0  0  0  0  0  0  0  0
    3.3504   -1.9347    0.0000 C   0  0  0  0  0  0  0  0  0  0  0  0
    3.3504   -0.7236    0.0000 C   0  0  0  0  0  0  0  0  0  0  0  0
    8.8401   -4.0582    0.0000 C   0  0  0  0  0  0  0  0  0  0  0  0
   10.0040   -6.0402    0.0000 C   0  0  2  0  0  0  0  0  0  0  0  0
   12.2848   -6.0244    0.0000 C   0  0  0  0  0  0  0  0  0  0  0  0
    6.5750   -4.0582    0.0000 C   0  0  0  0  0  0  0  0  0  0  0  0
    8.8401   -6.7008    0.0000 C   0  0  2  0  0  0  0  0  0  0  0  0
   12.2848   -4.7032    0.0000 C   0  0  0  0  0  0  0  0  0  0  0  0
   12.2848   -2.0449    0.0000 C   0  0  0  0  0  0  0  0  0  0  0  0
    6.5750   -6.7323    0.0000 C   0  0  0  0  0  0  0  0  0  0  0  0
   11.1366   -6.7008    0.0000 O   0  0  0  0  0  0  0  0  0  0  0  0
    8.8401   -2.7370    0.0000 C   0  0  0  0  0  0  0  0  0  0  0  0
   11.1208   -2.7055    0.0000 C   0  0  0  0  0  0  0  0  0  0  0  0
   13.4331   -2.7055    0.0000 C   0  0  0  0  0  0  0  0  0  0  0  0
   10.0040   -4.7346    0.0000 C   0  0  0  0  0  0  0  0  0  0  0  0
    6.5750   -0.0629    0.0000 C   0  0  0  0  0  0  0  0  0  0  0  0
   11.1208   -4.0268    0.0000 C   0  0  0  0  0  0  0  0  0  0  0  0
   13.4331   -4.0268    0.0000 C   0  0  0  0  0  0  0  0  0  0  0  0
    2.2021   -2.6740    0.0000 C   0  0  0  0  0  0  0  0  0  0  0  0
    2.2021    0.0000    0.0000 C   0  0  0  0  0  0  0  0  0  0  0  0
    7.7075   -0.7236    0.0000 C   0  0  0  0  0  0  0  0  0  0  0  0
   13.4331   -6.6851    0.0000 O   0  0  0  0  0  0  0  0  0  0  0  0
    5.4267   -6.0716    0.0000 O   0  0  0  0  0  0  0  0  0  0  0  0
    1.0853   -2.0134    0.0000 C   0  0  0  0  0  0  0  0  0  0  0  0
   12.2848   -0.7078    0.0000 O   0  0  0  0  0  0  0  0  0  0  0  0
    1.0853   -0.6606    0.0000 C   0  0  0  0  0  0  0  0  0  0  0  0
    8.8401   -8.0378    0.0000 O   0  0  0  0  0  0  0  0  0  0  0  0
    6.5750   -8.0378    0.0000 O   0  0  0  0  0  0  0  0  0  0  0  0
    9.9726   -2.0449    0.0000 O   0  0  0  0  0  0  0  0  0  0  0  0
   14.5814   -2.0449    0.0000 O   0  0  0  0  0  0  0  0  0  0  0  0
    0.0000   -2.7684    0.0000 O   0  0  0  0  0  0  0  0  0  0  0  0
   13.4331   -0.0315    0.0000 C   0  0  0  0  0  0  0  0  0  0  0  0
   10.0040   -8.7142    0.0000 C   0  0  0  0  0  0  0  0  0  0  0  0
    9.9726   -0.7078    0.0000 C   0  0  0  0  0  0  0  0  0  0  0  0
   15.7296   -2.7055    0.0000 C   0  0  0  0  0  0  0  0  0  0  0  0
    7.7075   -8.7142    0.0000 C   0  0  0  0  0  0  0  0  0  0  0  0
    0.0000   -4.1212    0.0000 C   0  0  0  0  0  0  0  0  0  0  0  0
  1  2  1  0  0  0  0
  1  3  2  0  0  0  0
  1  6  1  0  0  0  0
  2  8  1  0  0  0  0
  3  9  1  0  0  0  0
  3 23  1  0  0  0  0
  4  5  1  0  0  0  0
  4 14  1  0  0  0  0
  4 17  1  1  0  0  0
  5 13  1  0  0  0  0
  5 10  1  0  0  0  0
  6  7  1  0  0  0  0
  6 13  1  0  0  0  0
  7 19  1  0  0  0  0
  7 28  1  0  0  0  0
  8 26  1  0  0  0  0
  8  9  2  0  0  0  0
  9 27  1  0  0  0  0
 10 22  1  0  0  0  0
 10 19  1  0  0  0  0
 11 22  1  0  0  0  0
 11 18  1  1  0  0  0
 11 14  1  0  0  0  0
 12 18  1  0  0  0  0
 12 15  1  0  0  0  0
 12 29  2  0  0  0  0
 14 34  1  6  0  0  0
 15 24  2  0  0  0  0
 15 25  1  0  0  0  0
 16 21  1  0  0  0  0
 16 32  1  0  0  0  0
 16 20  2  0  0  0  0
 17 30  2  0  0  0  0
 17 35  1  0  0  0  0
 20 24  1  0  0  0  0
 20 36  1  0  0  0  0
 21 25  2  0  0  0  0
 21 37  1  0  0  0  0
 23 28  1  0  0  0  0
 26 31  2  0  0  0  0
 27 33  2  0  0  0  0
 31 38  1  0  0  0  0
 31 33  1  0  0  0  0
 32 39  1  0  0  0  0
 34 40  1  0  0  0  0
 35 43  1  0  0  0  0
 36 41  1  0  0  0  0
 37 42  1  0  0  0  0
 38 44  1  0  0  0  0
M  END
>  <ActivityOutcome_CPDBAS_Rat>
active

>  <cdk:Formula>
[]

>  <TD50_Rat_mmol>
0.000503

>  <net.bioclipse.cdk.fingerprint>
AIKglC9rkCeBbruCvhfB/ksQfQIQDEAICMADIiGgItwsv1ELe5Ok25SJpIBJOJwEWCGWO6QMikBgTMDRa8D0CKARLx0IDIKEQgR9F1TiAGGIDZMRw6CgzsgZl7AkGSzKiCpByGNGbWyhQTgqL0EaBCn4kz6slVY85kjnBCamYiiR

$$$$

 OpenBabel04131118512D

 24 24  0  0  0  0  0  0  0  0999 V2000
    1.8254   -0.1777    0.0000 C   0  0  0  0  0  0  0  0  0  0  0  0
    1.1631   -1.3408    0.0000 C   0  0  0  0  0  0  0  0  0  0  0  0
    2.3100   -1.9869    0.0000 C   0  0  0  0  0  0  0  0  0  0  0  0
    2.3100   -3.3277    0.0000 C   0  0  0  0  0  0  0  0  0  0  0  0
    1.1631   -3.9900    0.0000 C   0  0  0  0  0  0  0  0  0  0  0  0
    0.0000   -3.3277    0.0000 C   0  0  0  0  0  0  0  0  0  0  0  0
    0.0000   -1.9869    0.0000 C   0  0  0  0  0  0  0  0  0  0  0  0
    3.4731   -3.9900    0.0000 C   0  0  0  0  0  0  0  0  0  0  0  0
    3.4731   -1.3408    0.0000 C   0  0  0  0  0  0  0  0  0  0  0  0
    4.6200   -1.9869    0.0000 C   0  0  0  0  0  0  0  0  0  0  0  0
    5.7831   -1.3408    0.0000 C   0  0  0  0  0  0  0  0  0  0  0  0
    6.9300   -1.9869    0.0000 C   0  0  0  0  0  0  0  0  0  0  0  0
    8.0769   -1.3408    0.0000 C   0  0  0  0  0  0  0  0  0  0  0  0
    9.2239   -1.9869    0.0000 C   0  0  0  0  0  0  0  0  0  0  0  0
   10.3708   -1.3246    0.0000 C   0  0  0  0  0  0  0  0  0  0  0  0
   11.5339   -1.9869    0.0000 C   0  0  0  0  0  0  0  0  0  0  0  0
   12.6808   -1.3246    0.0000 C   0  0  0  0  0  0  0  0  0  0  0  0
   13.8439   -1.9869    0.0000 O   0  0  0  0  0  0  0  0  0  0  0  0
   14.9908   -1.3246    0.0000 C   0  0  0  0  0  0  0  0  0  0  0  0
   14.9908    0.0000    0.0000 O   0  0  0  0  0  0  0  0  0  0  0  0
   16.1539   -1.9869    0.0000 C   0  0  0  0  0  0  0  0  0  0  0  0
   10.3708    0.0000    0.0000 C   0  0  0  0  0  0  0  0  0  0  0  0
    5.7831    0.0000    0.0000 C   0  0  0  0  0  0  0  0  0  0  0  0
    0.4846   -0.1777    0.0000 C   0  0  0  0  0  0  0  0  0  0  0  0
  1  2  1  0  0  0  0
  2  3  1  0  0  0  0
  2  7  1  0  0  0  0
  2 24  1  0  0  0  0
  3  4  2  0  0  0  0
  3  9  1  0  0  0  0
  4  5  1  0  0  0  0
  4  8  1  0  0  0  0
  5  6  1  0  0  0  0
  6  7  1  0  0  0  0
  9 10  2  0  0  0  0
 10 11  1  0  0  0  0
 11 12  2  0  0  0  0
 11 23  1  0  0  0  0
 12 13  1  0  0  0  0
 13 14  2  0  0  0  0
 14 15  1  0  0  0  0
 15 16  2  0  0  0  0
 15 22  1  0  0  0  0
 16 17  1  0  0  0  0
 17 18  1  0  0  0  0
 18 19  1  0  0  0  0
 19 20  2  0  0  0  0
 19 21  1  0  0  0  0
M  END
>  <ActivityOutcome_CPDBAS_Rat>
active

>  <cdk:Formula>
[]

>  <TD50_Rat_mmol>
0.381

>  <net.bioclipse.cdk.fingerprint>
QAABCAAAAkAAAAIAAAQACIAAAoAEQADgEAAEwIEEAABRCOAAgAAAACAAUAAQAEAgAgAACBAQkCQAABBAAAQAAAEAAAQAAAAAAAAAAAABAABgAAABAAgUAAAwAAAJAAAAAEAAAABAAAAAAAAREAAAAQAAAADQCAAAAABAAAAAIA==

$$$$

 OpenBabel04131118512D

 25 27  0  0  0  0  0  0  0  0999 V2000
    5.7044   -1.5850    0.0000 C   0  0  1  0  0  0  0  0  0  0  0  0
    2.2362   -3.6172    0.0000 C   0  0  0  0  0  0  0  0  0  0  0  0
    3.3504   -4.2920    0.0000 O   0  0  0  0  0  0  0  0  0  0  0  0
    3.3504   -5.5945    0.0000 C   0  0  1  0  0  0  0  0  0  0  0  0
    6.7166   -2.3304    0.0000 C   0  0  0  0  0  0  0  0  0  0  0  0
    2.2362   -2.3304    0.0000 C   0  0  0  0  0  0  0  0  0  0  0  0
    5.6102   -5.5945    0.0000 C   0  0  0  0  0  0  0  0  0  0  0  0
    4.4960   -7.5640    0.0000 N   0  0  0  0  0  0  0  0  0  0  0  0
    4.4960   -6.2301    0.0000 C   0  0  0  0  0  0  0  0  0  0  0  0
    6.7166   -3.6172    0.0000 O   0  0  0  0  0  0  0  0  0  0  0  0
    4.2920   -1.2633    0.0000 C   0  0  1  0  0  0  0  0  0  0  0  0
    6.7166   -6.2301    0.0000 C   0  0  0  0  0  0  0  0  0  0  0  0
    2.9581   -1.6242    0.0000 C   0  0  0  0  0  0  0  0  0  0  0  0
    2.2362   -6.2301    0.0000 C   0  0  0  0  0  0  0  0  0  0  0  0
    5.6102   -4.2920    0.0000 C   0  0  0  0  0  0  0  0  0  0  0  0
    6.7166   -7.5640    0.0000 C   0  0  0  0  0  0  0  0  0  0  0  0
    2.2362   -7.5640    0.0000 C   0  0  0  0  0  0  0  0  0  0  0  0
    1.0907   -4.2920    0.0000 O   0  0  0  0  0  0  0  0  0  0  0  0
    7.8465   -1.6713    0.0000 O   0  0  0  0  0  0  0  0  0  0  0  0
    1.1299   -1.6713    0.0000 C   0  0  0  0  0  0  0  0  0  0  0  0
    5.6024   -0.4786    0.0000 O   0  0  0  0  0  0  0  0  0  0  0  0
    6.4733   -1.0671    0.0000 C   0  0  0  0  0  0  0  0  0  0  0  0
    7.3678   -1.0671    0.0000 O   0  0  0  0  0  0  0  0  0  0  0  0
    4.2920    0.0000    0.0000 C   0  0  0  0  0  0  0  0  0  0  0  0
    0.0000   -2.3069    0.0000 C   0  0  0  0  0  0  0  0  0  0  0  0
  1  5  1  0  0  0  0
  1 11  1  0  0  0  0
  1 21  1  1  0  0  0
  1 22  1  6  0  0  0
  2  6  1  0  0  0  0
  2  3  1  0  0  0  0
  2 18  2  0  0  0  0
  4  3  1  1  0  0  0
  4 14  1  0  0  0  0
  4  9  1  0  0  0  0
  5 10  1  0  0  0  0
  5 19  2  0  0  0  0
  6 13  1  0  0  0  0
  6 20  2  0  0  0  0
  7 15  1  0  0  0  0
  7  9  1  0  0  0  0
  7 12  2  0  0  0  0
  8  9  1  0  0  0  0
  8 17  1  0  0  0  0
  8 16  1  0  0  0  0
 10 15  1  0  0  0  0
 11 13  1  0  0  0  0
 11 24  1  1  0  0  0
 12 16  1  0  0  0  0
 14 17  1  0  0  0  0
 20 25  1  0  0  0  0
 22 23  1  0  0  0  0
M  END
>  <ActivityOutcome_CPDBAS_Rat>
active

>  <cdk:Formula>
[]

>  <TD50_Rat_mmol>
0.00245

>  <net.bioclipse.cdk.fingerprint>
AtCYBUkDAgBqIYiCBAMBQREUagIABDEC4TAEAIMAACATAwBgRIwAAAACAAkJAADZbAYyBkSQEBJgAEQjwWQQQAAABCQOcgHAAAQAYVagUMgBAAhTIGFEQCBhMgQCAEIogQhIRxABAACBCAhgQBAgB7UACYAE8H/ACEpoQQZCACA=

$$$$

 OpenBabel04131118512D

 25 27  0  0  0  0  0  0  0  0999 V2000
    6.2442    2.0957    0.0000 C   0  0  0  0  0  0  0  0  0  0  0  0
    5.0331    1.4000    0.0000 C   0  0  0  0  0  0  0  0  0  0  0  0
    3.8221    2.0957    0.0000 C   0  0  2  0  0  0  0  0  0  0  0  0
    3.8221    3.5043    0.0000 O   0  0  0  0  0  0  0  0  0  0  0  0
    2.6110    4.2000    0.0000 C   0  0  0  0  0  0  0  0  0  0  0  0
    2.6110    5.6000    0.0000 C   0  0  0  0  0  0  0  0  0  0  0  0
    3.8221    6.2957    0.0000 C   0  0  0  0  0  0  0  0  0  0  0  0
    5.0331    5.6000    0.0000 C   0  0  0  0  0  0  0  0  0  0  0  0
    5.0331    7.1031    0.0000 C   0  0  0  0  0  0  0  0  0  0  0  0
    6.2442    6.2957    0.0000 C   0  0  1  0  0  0  0  0  0  0  0  0
    7.4552    5.6000    0.0000 C   0  0  0  0  0  0  0  0  0  0  0  0
    7.4552    4.2000    0.0000 O   0  0  0  0  0  0  0  0  0  0  0  0
    6.2442    3.5043    0.0000 C   0  0  0  0  0  0  0  0  0  0  0  0
    8.2025    6.0380    0.0000 O   0  0  0  0  0  0  0  0  0  0  0  0
    7.5583    7.0429    0.0000 C   0  0  0  0  0  0  0  0  0  0  0  0
    8.5890    6.6135    0.0000 O   0  0  0  0  0  0  0  0  0  0  0  0
    6.2528    7.7988    0.0000 O   0  0  0  0  0  0  0  0  0  0  0  0
    1.3055    6.3472    0.0000 C   0  0  0  0  0  0  0  0  0  0  0  0
    0.0000    5.5914    0.0000 C   0  0  0  0  0  0  0  0  0  0  0  0
    1.3991    3.5058    0.0000 O   0  0  0  0  0  0  0  0  0  0  0  0
    2.6110    1.4000    0.0000 C   0  0  0  0  0  0  0  0  0  0  0  0
    2.6110    0.0000    0.0000 C   0  0  0  0  0  0  0  0  0  0  0  0
    5.0331    0.0000    0.0000 N   0  0  0  0  0  0  0  0  0  0  0  0
    7.4552    0.0000    0.0000 C   0  0  0  0  0  0  0  0  0  0  0  0
    7.4552    1.4000    0.0000 C   0  0  0  0  0  0  0  0  0  0  0  0
  2  1  1  0  0  0  0
  3  2  1  0  0  0  0
  3  4  1  1  0  0  0
  5  4  1  0  0  0  0
  6  5  1  0  0  0  0
  7  6  1  0  0  0  0
  8  7  1  0  0  0  0
  9  8  2  0  0  0  0
 10  8  1  0  0  0  0
 10 15  1  6  0  0  0
 10 17  1  1  0  0  0
 11 10  1  0  0  0  0
 12 11  1  0  0  0  0
 13  1  1  0  0  0  0
 13 12  1  0  0  0  0
 14 11  2  0  0  0  0
 16 15  1  0  0  0  0
 18  6  2  0  0  0  0
 19 18  1  0  0  0  0
 20  5  2  0  0  0  0
 21  3  1  0  0  0  0
 22 21  1  0  0  0  0
 23  2  1  0  0  0  0
 23 22  1  0  0  0  0
 24 23  1  0  0  0  0
 25  1  2  0  0  0  0
 25 24  1  0  0  0  0
M  END
>  <ActivityOutcome_CPDBAS_Rat>
active

>  <cdk:Formula>
[]

>  <TD50_Rat_mmol>
0.000341

>  <net.bioclipse.cdk.fingerprint>
AtCYBUkDAgBqIYiCBAMBQREUagIABDEC4TAEAMMAACATAwBgRIwAAABCAAkJAADZbAYyBkSQEBJgAEQjwWQQQAAQBSQOcgHAAAQAYVagUMgBAAhTIGFEQCBhMgQCAEIohQhIRxABAACBCAhgQBAgB7VACYAE8H/ACEpowQZiACA=

$$$$

 OpenBabel04131118512D

 12 13  0  0  0  0  0  0  0  0999 V2000
    0.0000   -2.6625    0.0000 C   0  0  0  0  0  0  0  0  0  0  0  0
    1.1556   -1.9988    0.0000 C   0  0  0  0  0  0  0  0  0  0  0  0
    2.3033   -2.6625    0.0000 C   0  0  0  0  0  0  0  0  0  0  0  0
    3.4589   -1.9988    0.0000 C   0  0  0  0  0  0  0  0  0  0  0  0
    3.4589   -0.6637    0.0000 C   0  0  0  0  0  0  0  0  0  0  0  0
    4.6067    0.0000    0.0000 C   0  0  0  0  0  0  0  0  0  0  0  0
    5.7622   -0.6637    0.0000 C   0  0  0  0  0  0  0  0  0  0  0  0
    5.7622   -1.9988    0.0000 C   0  0  0  0  0  0  0  0  0  0  0  0
    4.6067   -2.6625    0.0000 C   0  0  0  0  0  0  0  0  0  0  0  0
    7.0271   -2.4048    0.0000 O   0  0  0  0  0  0  0  0  0  0  0  0
    7.8079   -1.3351    0.0000 C   0  0  0  0  0  0  0  0  0  0  0  0
    7.0271   -0.2577    0.0000 O   0  0  0  0  0  0  0  0  0  0  0  0
  1  2  2  0  0  0  0
  2  3  1  0  0  0  0
  3  4  1  0  0  0  0
  4  5  2  0  0  0  0
  4  9  1  0  0  0  0
  5  6  1  0  0  0  0
  6  7  2  0  0  0  0
  7  8  1  0  0  0  0
  7 12  1  0  0  0  0
  8  9  2  0  0  0  0
  8 10  1  0  0  0  0
 10 11  1  0  0  0  0
 11 12  1  0  0  0  0
M  END
>  <ActivityOutcome_CPDBAS_Rat>
active

>  <cdk:Formula>
[]

>  <TD50_Rat_mmol>
2.72

>  <net.bioclipse.cdk.fingerprint>
QAIACAAABEAIAAIAAAAAAAAAAigFAACAAAIAQAACCAgkAmEAAASAgAAIAAAAAAAgBOQgQAAQAEAAACBAAAAAAAYYAAAIAEIAAAIEAAAAgAAQAAAAAAAAAJABAAAAgAAgAALAQCAgYAIQAAJMCAQCAgAUAIAAIAAAAKABICAAAA==

$$$$

 OpenBabel04131118512D

 17 17  0  0  0  0  0  0  0  0999 V2000
    3.1480    0.0000    0.0000 O   0  0  0  0  0  0  0  0  0  0  0  0
    3.8049   -1.1588    0.0000 C   0  0  0  0  0  0  0  0  0  0  0  0
    5.1371   -1.1588    0.0000 C   0  0  0  0  0  0  0  0  0  0  0  0
    5.8032    0.0000    0.0000 C   0  0  0  0  0  0  0  0  0  0  0  0
    7.1354    0.0000    0.0000 C   0  0  0  0  0  0  0  0  0  0  0  0
    7.7924   -1.1588    0.0000 C   0  0  0  0  0  0  0  0  0  0  0  0
    7.1354   -2.3085    0.0000 C   0  0  0  0  0  0  0  0  0  0  0  0
    5.8032   -2.3085    0.0000 C   0  0  0  0  0  0  0  0  0  0  0  0
    7.7924   -3.4582    0.0000 C   0  0  0  0  0  0  0  0  0  0  0  0
    9.1246   -3.4582    0.0000 O   0  0  0  0  0  0  0  0  0  0  0  0
    9.1246   -1.1588    0.0000 O   0  0  0  0  0  0  0  0  0  0  0  0
    3.1480   -2.3085    0.0000 C   0  0  0  0  0  0  0  0  0  0  0  0
    1.8158   -2.3085    0.0000 N   0  0  0  0  0  0  0  0  0  0  0  0
    1.1497   -3.4582    0.0000 C   0  0  0  0  0  0  0  0  0  0  0  0
    2.2994   -4.1243    0.0000 C   0  0  0  0  0  0  0  0  0  0  0  0
    0.4836   -4.6079    0.0000 C   0  0  0  0  0  0  0  0  0  0  0  0
    0.0000   -2.7921    0.0000 C   0  0  0  0  0  0  0  0  0  0  0  0
  1  2  1  0  0  0  0
  2  3  1  0  0  0  0
  2 12  1  0  0  0  0
  3  4  2  0  0  0  0
  3  8  1  0  0  0  0
  4  5  1  0  0  0  0
  5  6  2  0  0  0  0
  6  7  1  0  0  0  0
  6 11  1  0  0  0  0
  7  8  2  0  0  0  0
  7  9  1  0  0  0  0
  9 10  1  0  0  0  0
 12 13  1  0  0  0  0
 13 14  1  0  0  0  0
 14 15  1  0  0  0  0
 14 16  1  0  0  0  0
 14 17  1  0  0  0  0
M  END
>  <ActivityOutcome_CPDBAS_Rat>
active

>  <cdk:Formula>
[]

>  <TD50_Rat_mmol>
0.167

>  <net.bioclipse.cdk.fingerprint>
AJAAwAAAgAIAAhIAAQAAAAAAIACAABAAAgAAAAIEEAiAAmEAAAgAAAAAAAQQAAgwADAgCAAAIEAAAADAAAAAAAYMAAAAAAEAAAIQAAAAgQAQAEAgAAAAAIAQAAAAgAAgAAoAQCQkAAAAAEJAAAQIIICUAIIAAQQAAQAEAAIAAA==

$$$$

 OpenBabel04131118512D

 28 30  0  0  0  0  0  0  0  0999 V2000
   13.2958    0.0000    0.0000 C   0  0  0  0  0  0  0  0  0  0  0  0
   14.6254    0.0000    0.0000 C   0  0  0  0  0  0  0  0  0  0  0  0
   15.2826   -1.1615    0.0000 C   0  0  0  0  0  0  0  0  0  0  0  0
   14.6254   -2.3077    0.0000 C   0  0  0  0  0  0  0  0  0  0  0  0
   13.2958   -2.3077    0.0000 C   0  0  0  0  0  0  0  0  0  0  0  0
   12.6234   -3.4539    0.0000 N   0  0  0  0  0  0  0  0  0  0  0  0
   11.2938   -3.4539    0.0000 S   0  0  0  0  0  0  0  0  0  0  0  0
   11.2938   -4.7834    0.0000 O   0  0  0  0  0  0  0  0  0  0  0  0
   11.2938   -2.1243    0.0000 O   0  0  0  0  0  0  0  0  0  0  0  0
    9.9642   -3.4539    0.0000 C   0  0  0  0  0  0  0  0  0  0  0  0
    9.3071   -4.6153    0.0000 C   0  0  0  0  0  0  0  0  0  0  0  0
    7.9775   -4.6153    0.0000 C   0  0  0  0  0  0  0  0  0  0  0  0
    7.3051   -3.4539    0.0000 C   0  0  0  0  0  0  0  0  0  0  0  0
    5.9755   -3.4539    0.0000 N   0  0  0  0  0  0  0  0  0  0  0  0
    5.3183   -4.6153    0.0000 N   0  0  0  0  0  0  0  0  0  0  0  0
    3.9888   -4.6153    0.0000 C   0  0  0  0  0  0  0  0  0  0  0  0
    3.3163   -5.7615    0.0000 C   0  0  0  0  0  0  0  0  0  0  0  0
    1.9867   -5.7615    0.0000 C   0  0  0  0  0  0  0  0  0  0  0  0
    1.3296   -4.6153    0.0000 C   0  0  0  0  0  0  0  0  0  0  0  0
    0.0000   -4.6153    0.0000 O   0  0  0  0  0  0  0  0  0  0  0  0
    1.9867   -3.4539    0.0000 C   0  0  0  0  0  0  0  0  0  0  0  0
    1.3296   -2.3077    0.0000 C   0  0  0  0  0  0  0  0  0  0  0  0
    0.0000   -2.3077    0.0000 O   0  0  0  0  0  0  0  0  0  0  0  0
    1.9867   -1.1615    0.0000 O   0  0  0  0  0  0  0  0  0  0  0  0
    3.3163   -3.4539    0.0000 C   0  0  0  0  0  0  0  0  0  0  0  0
    7.9775   -2.3077    0.0000 C   0  0  0  0  0  0  0  0  0  0  0  0
    9.3071   -2.3077    0.0000 C   0  0  0  0  0  0  0  0  0  0  0  0
   12.6234   -1.1615    0.0000 N   0  0  0  0  0  0  0  0  0  0  0  0
  1  2  2  0  0  0  0
  1 28  1  0  0  0  0
  2  3  1  0  0  0  0
  3  4  2  0  0  0  0
  4  5  1  0  0  0  0
  5  6  1  0  0  0  0
  5 28  2  0  0  0  0
  6  7  1  0  0  0  0
  7  8  2  0  0  0  0
  7  9  2  0  0  0  0
  7 10  1  0  0  0  0
 10 11  2  0  0  0  0
 10 27  1  0  0  0  0
 11 12  1  0  0  0  0
 12 13  2  0  0  0  0
 13 14  1  0  0  0  0
 13 26  1  0  0  0  0
 14 15  2  0  0  0  0
 15 16  1  0  0  0  0
 16 17  2  0  0  0  0
 16 25  1  0  0  0  0
 17 18  1  0  0  0  0
 18 19  2  0  0  0  0
 19 20  1  0  0  0  0
 19 21  1  0  0  0  0
 21 22  1  0  0  0  0
 21 25  2  0  0  0  0
 22 23  1  0  0  0  0
 22 24  2  0  0  0  0
 26 27  2  0  0  0  0
M  END
>  <ActivityOutcome_CPDBAS_Rat>
active

>  <cdk:Formula>
[]

>  <TD50_Rat_mmol>
3.99

>  <net.bioclipse.cdk.fingerprint>
AIACIJBCBCAggE4EAgABAiMAAAECEEAAAFAYAARcAsAAG2kRAAgEQgAUMAQAQAggAFAgIBAAIEAJQAUgAIGwoQYAgwACGQGsYAKJICCAwASDAAKAAQEAAKEwAAIAkSAgAEAA4TAkAKAgmCJAEAAcAMQIoIF4KmAxIRQCAFNUQA==

$$$$

 OpenBabel04131118512D

 26 27  0  0  0  0  0  0  0  0999 V2000
    4.9983   -1.6803    0.0000 C   0  0  2  0  0  0  0  0  0  0  0  0
    3.7445   -0.9553    0.0000 C   0  0  0  0  0  0  0  0  0  0  0  0
    3.7445   -3.8383    0.0000 O   0  0  0  0  0  0  0  0  0  0  0  0
    2.4991   -1.6803    0.0000 C   0  0  0  0  0  0  0  0  0  0  0  0
    2.4991   -3.1218    0.0000 C   0  0  0  0  0  0  0  0  0  0  0  0
    5.0495   -4.2562    0.0000 O   0  0  0  0  0  0  0  0  0  0  0  0
    2.8233   -5.8683    0.0000 C   0  0  0  0  0  0  0  0  0  0  0  0
    3.6677   -4.6998    0.0000 C   0  0  2  0  0  0  0  0  0  0  0  0
    3.6677   -7.0369    0.0000 C   0  0  0  0  0  0  0  0  0  0  0  0
    5.0409   -5.1433    0.0000 C   0  0  0  0  0  0  0  0  0  0  0  0
    5.0409   -6.5848    0.0000 N   0  0  0  0  0  0  0  0  0  0  0  0
    6.4142   -4.6998    0.0000 C   0  0  0  0  0  0  0  0  0  0  0  0
    7.2586   -5.8683    0.0000 C   0  0  0  0  0  0  0  0  0  0  0  0
    6.4142   -7.0369    0.0000 C   0  0  0  0  0  0  0  0  0  0  0  0
    5.0495   -7.7363    0.0000 C   0  0  0  0  0  0  0  0  0  0  0  0
    7.4974   -1.6803    0.0000 C   0  0  0  0  0  0  0  0  0  0  0  0
    7.4974   -3.1218    0.0000 O   0  0  0  0  0  0  0  0  0  0  0  0
    6.2521   -0.9553    0.0000 C   0  0  2  0  0  0  0  0  0  0  0  0
    6.4057   -3.8980    0.0000 C   0  0  0  0  0  0  0  0  0  0  0  0
    8.5295   -1.0918    0.0000 O   0  0  0  0  0  0  0  0  0  0  0  0
    5.4845    0.0000    0.0000 O   0  0  0  0  0  0  0  0  0  0  0  0
    7.4377   -0.0682    0.0000 C   0  0  0  0  0  0  0  0  0  0  0  0
    5.9707   -2.5077    0.0000 C   0  0  0  0  0  0  0  0  0  0  0  0
    1.2453   -0.9553    0.0000 C   0  0  0  0  0  0  0  0  0  0  0  0
    0.0000   -1.6803    0.0000 C   0  0  0  0  0  0  0  0  0  0  0  0
    1.2538   -3.8383    0.0000 O   0  0  0  0  0  0  0  0  0  0  0  0
  1  2  1  0  0  0  0
  1 18  1  0  0  0  0
  1 23  1  6  0  0  0
  2  4  1  0  0  0  0
  3  5  1  0  0  0  0
  4 24  2  0  0  0  0
  4  5  1  0  0  0  0
  5 26  2  0  0  0  0
  6 10  2  0  0  0  0
  7  8  1  0  0  0  0
  7  9  1  0  0  0  0
  8  3  1  1  0  0  0
  8 10  1  0  0  0  0
  9 11  1  0  0  0  0
 10 12  1  0  0  0  0
 11 14  1  0  0  0  0
 11 15  1  0  0  0  0
 12 13  2  0  0  0  0
 12 19  1  0  0  0  0
 13 14  1  0  0  0  0
 16 17  1  0  0  0  0
 16 18  1  0  0  0  0
 16 20  2  0  0  0  0
 17 19  1  0  0  0  0
 18 21  1  1  0  0  0
 18 22  1  6  0  0  0
 24 25  1  0  0  0  0
M  END
>  <ActivityOutcome_CPDBAS_Rat>
active

>  <cdk:Formula>
[]

>  <TD50_Rat_mmol>
0.00465

>  <net.bioclipse.cdk.fingerprint>
AtCQJUADAgFqIYCCBAMBQBCUYAIABXEC4RIAAIMAACAXAQBgQIoEAgAAIAkBAADYagYyAETQEBJgAEAjwWQQQBACBCAOcgHAAEQAQUKgUMgBAAgTIGFAQCBlMgQAAEAogAhIRxABAAGBCohwYBAAA7UACAgE8FrACEpoRAYCACA=

$$$$

 OpenBabel04131118512D

 10 11  0  0  0  0  0  0  0  0999 V2000
    5.5020   -2.6575    0.0000 O   0  0  0  0  0  0  0  0  0  0  0  0
    4.3521   -1.9917    0.0000 C   0  0  0  0  0  0  0  0  0  0  0  0
    3.1967   -2.6575    0.0000 C   0  0  0  0  0  0  0  0  0  0  0  0
    2.0468   -1.9917    0.0000 C   0  0  0  0  0  0  0  0  0  0  0  0
    2.0468   -0.6602    0.0000 C   0  0  0  0  0  0  0  0  0  0  0  0
    3.1967    0.0000    0.0000 C   0  0  0  0  0  0  0  0  0  0  0  0
    4.3521   -0.6602    0.0000 C   0  0  0  0  0  0  0  0  0  0  0  0
    0.7813   -0.2531    0.0000 O   0  0  0  0  0  0  0  0  0  0  0  0
    0.0000   -1.3260    0.0000 C   0  0  0  0  0  0  0  0  0  0  0  0
    0.7813   -2.4044    0.0000 O   0  0  0  0  0  0  0  0  0  0  0  0
  1  2  1  0  0  0  0
  2  3  2  0  0  0  0
  2  7  1  0  0  0  0
  3  4  1  0  0  0  0
  4  5  2  0  0  0  0
  4 10  1  0  0  0  0
  5  6  1  0  0  0  0
  5  8  1  0  0  0  0
  6  7  2  0  0  0  0
  8  9  1  0  0  0  0
  9 10  1  0  0  0  0
M  END
>  <ActivityOutcome_CPDBAS_Rat>
active

>  <cdk:Formula>
[]

>  <TD50_Rat_mmol>
9.77

>  <net.bioclipse.cdk.fingerprint>
QAAAAgAAAAAAAAACCAAAAIAAAABAAAIAAAQCYQAABgAIAABAAAAABAAE4CAAAAAAQAAQAAAAAAAABhAAAIgAQgAAAAQCgACAAAEAAAAAAAAAAAEAAAAAACAAAMAAICAgABAAAgCAAIAAIAAAgAAAAAAAAAEAIAAA

$$$$

 OpenBabel04131118512D

 24 28  0  0  0  0  0  0  0  0999 V2000
    4.4425   -7.4016    0.0000 O   0  0  0  0  0  0  0  0  0  0  0  0
    4.4425   -6.0712    0.0000 C   0  0  0  0  0  0  0  0  0  0  0  0
    3.2896   -5.4020    0.0000 C   0  0  0  0  0  0  0  0  0  0  0  0
    2.1366   -6.0712    0.0000 C   0  0  0  0  0  0  0  0  0  0  0  0
    0.9917   -5.4020    0.0000 C   0  0  0  0  0  0  0  0  0  0  0  0
    0.9917   -4.0717    0.0000 C   0  0  0  0  0  0  0  0  0  0  0  0
    2.1366   -3.4105    0.0000 C   0  0  0  0  0  0  0  0  0  0  0  0
    3.2896   -4.0717    0.0000 C   0  0  0  0  0  0  0  0  0  0  0  0
    4.4425   -3.4105    0.0000 O   0  0  0  0  0  0  0  0  0  0  0  0
    5.5955   -4.0717    0.0000 C   0  0  0  0  0  0  0  0  0  0  0  0
    6.7485   -3.4105    0.0000 C   0  0  0  0  0  0  0  0  0  0  0  0
    7.9014   -4.0717    0.0000 C   0  0  0  0  0  0  0  0  0  0  0  0
    7.9014   -5.4020    0.0000 C   0  0  0  0  0  0  0  0  0  0  0  0
    6.7485   -6.0712    0.0000 C   0  0  0  0  0  0  0  0  0  0  0  0
    5.5955   -5.4020    0.0000 C   0  0  0  0  0  0  0  0  0  0  0  0
    6.7485   -7.4016    0.0000 O   0  0  0  0  0  0  0  0  0  0  0  0
    1.8625   -2.1044    0.0000 C   0  0  0  0  0  0  0  0  0  0  0  0
    0.5402   -1.9673    0.0000 C   0  0  0  0  0  0  0  0  0  0  0  0
    0.0000   -3.1848    0.0000 O   0  0  0  0  0  0  0  0  0  0  0  0
    0.2661   -0.6611    0.0000 O   0  0  0  0  0  0  0  0  0  0  0  0
    1.4190    0.0000    0.0000 C   0  0  0  0  0  0  0  0  0  0  0  0
    2.4027   -0.8869    0.0000 C   0  0  0  0  0  0  0  0  0  0  0  0
    2.1366   -7.4016    0.0000 O   0  0  0  0  0  0  0  0  0  0  0  0
    0.9917   -8.0627    0.0000 C   0  0  0  0  0  0  0  0  0  0  0  0
  1  2  2  0  0  0  0
  2  3  1  0  0  0  0
  2 15  1  0  0  0  0
  3  4  2  0  0  0  0
  3  8  1  0  0  0  0
  4  5  1  0  0  0  0
  4 23  1  0  0  0  0
  5  6  2  0  0  0  0
  6  7  1  0  0  0  0
  6 19  1  0  0  0  0
  7  8  2  0  0  0  0
  7 17  1  0  0  0  0
  8  9  1  0  0  0  0
  9 10  1  0  0  0  0
 10 11  2  0  0  0  0
 10 15  1  0  0  0  0
 11 12  1  0  0  0  0
 12 13  2  0  0  0  0
 13 14  1  0  0  0  0
 14 15  2  0  0  0  0
 14 16  1  0  0  0  0
 17 18  1  0  0  0  0
 17 22  1  0  0  0  0
 18 19  1  0  0  0  0
 18 20  1  0  0  0  0
 20 21  1  0  0  0  0
 21 22  2  0  0  0  0
 23 24  1  0  0  0  0
M  END
>  <ActivityOutcome_CPDBAS_Rat>
active

>  <cdk:Formula>
[]

>  <TD50_Rat_mmol>
0.000469

>  <net.bioclipse.cdk.fingerprint>
AIhAAgIAAgOEQkCAAkaYkERYgZASFoUUSICUCqJyAG4CbhxjaRJAAgeqAIBs6jAAEDgWJCBUgFQFRgkEClAAIUYQDhwAAY6CQYkQMBQioSbXDnAJQgEAKEAE0DPAIAKAACACQkHAICYgIQgwFkyKLAbxOzQJsjEoQWMCMIcgIEgB

$$$$

 OpenBabel04131118512D

 18 18  0  0  0  0  0  0  0  0999 V2000
    5.3141   -2.3031    0.0000 C   0  0  2  0  0  0  0  0  0  0  0  0
    3.9880   -2.3031    0.0000 N   0  0  0  0  0  0  0  0  0  0  0  0
    3.3200   -1.1565    0.0000 C   0  0  0  0  0  0  0  0  0  0  0  0
    1.9940   -1.1565    0.0000 N   0  0  0  0  0  0  0  0  0  0  0  0
    1.3260   -2.3031    0.0000 N   0  0  0  0  0  0  0  0  0  0  0  0
    0.0000   -2.3031    0.0000 O   0  0  0  0  0  0  0  0  0  0  0  0
    1.3260    0.0000    0.0000 C   0  0  0  0  0  0  0  0  0  0  0  0
    3.9880    0.0000    0.0000 O   0  0  0  0  0  0  0  0  0  0  0  0
    5.9821   -1.1565    0.0000 C   0  0  2  0  0  0  0  0  0  0  0  0
    7.3081   -1.1565    0.0000 C   0  0  2  0  0  0  0  0  0  0  0  0
    7.9761    0.0000    0.0000 O   0  0  0  0  0  0  0  0  0  0  0  0
    7.9761   -2.3031    0.0000 C   0  0  2  0  0  0  0  0  0  0  0  0
    7.3081   -3.4596    0.0000 O   0  0  0  0  0  0  0  0  0  0  0  0
    5.9821   -3.4596    0.0000 C   0  0  2  0  0  0  0  0  0  0  0  0
    5.3141   -4.6062    0.0000 O   0  0  0  0  0  0  0  0  0  0  0  0
    9.3021   -2.3031    0.0000 C   0  0  0  0  0  0  0  0  0  0  0  0
    9.9701   -3.4596    0.0000 O   0  0  0  0  0  0  0  0  0  0  0  0
    5.3141    0.0000    0.0000 O   0  0  0  0  0  0  0  0  0  0  0  0
  1  2  1  6  0  0  0
  1  9  1  0  0  0  0
  1 14  1  0  0  0  0
  2  3  1  0  0  0  0
  3  4  1  0  0  0  0
  3  8  2  0  0  0  0
  4  5  1  0  0  0  0
  4  7  1  0  0  0  0
  5  6  2  0  0  0  0
  9 10  1  0  0  0  0
  9 18  1  1  0  0  0
 10 11  1  6  0  0  0
 10 12  1  0  0  0  0
 12 13  1  0  0  0  0
 12 16  1  1  0  0  0
 13 14  1  0  0  0  0
 14 15  1  6  0  0  0
 16 17  1  0  0  0  0
M  END
>  <ActivityOutcome_CPDBAS_Rat>
active

>  <cdk:Formula>
[]

>  <TD50_Rat_mmol>
0.00363

>  <net.bioclipse.cdk.fingerprint>
AIAGAAkAAEASEABLBBUAAJ0QAAAAAAEQwEAEACAAAAQUAyBgRIACgAAEgAAIAIEYJiJjAAKgAOAAAAFAw2IAAoAAAAABAABBAAAAAEAABMABAUBCIKhAQBVIEQAAAEIAAABkYAABAAABAAAgARAAACAAQAQAQHQAAAAYAAoLAAA=

$$$$

 OpenBabel04131118512D

  8  8  0  0  0  0  0  0  0  0999 V2000
    0.0000    0.0000    0.0000 C   0  0  0  0  0  0  0  0  0  0  0  0
    0.6654   -1.1540    0.0000 C   0  0  0  0  0  0  0  0  0  0  0  0
    1.9962   -1.1540    0.0000 C   0  0  0  0  0  0  0  0  0  0  0  0
    2.6569    0.0000    0.0000 C   0  0  0  0  0  0  0  0  0  0  0  0
    3.9877    0.0000    0.0000 C   0  0  0  0  0  0  0  0  0  0  0  0
    4.6531   -1.1540    0.0000 C   0  0  0  0  0  0  0  0  0  0  0  0
    3.9877   -2.3033    0.0000 C   0  0  0  0  0  0  0  0  0  0  0  0
    2.6569   -2.3033    0.0000 C   0  0  0  0  0  0  0  0  0  0  0  0
  1  2  2  0  0  0  0
  2  3  1  0  0  0  0
  3  4  2  0  0  0  0
  3  8  1  0  0  0  0
  4  5  1  0  0  0  0
  5  6  2  0  0  0  0
  6  7  1  0  0  0  0
  7  8  2  0  0  0  0
M  END
>  <ActivityOutcome_CPDBAS_Rat>
active

>  <cdk:Formula>
[]

>  <TD50_Rat_mmol>
0.224

>  <net.bioclipse.cdk.fingerprint>
QAAAEAAAAAAAAAAAAAAAAAAAAAAAAAAAAAAAAAgAAAAAAEAAAAAAAAAAAAAAAAAgAAAAAAAQAEAAAAAAAAAAAAQAAAAAABAAAAAAAAAAAAAAAAAAAAAAAIAAAAAAgAAgAAAAQCAAAAAAAAJAAAgAAAAAAIAAAAAAAAAAAAAAAA==

$$$$

 OpenBabel04131118512D

  9 10  0  0  0  0  0  0  0  0999 V2000
    0.0000   -0.4886    0.0000 C   0  0  0  0  0  0  0  0  0  0  0  0
    1.1521   -1.1521    0.0000 C   0  0  0  0  0  0  0  0  0  0  0  0
    2.4842   -1.1521    0.0000 C   0  0  0  0  0  0  0  0  0  0  0  0
    3.1476    0.0000    0.0000 C   0  0  0  0  0  0  0  0  0  0  0  0
    4.4797    0.0000    0.0000 C   0  0  0  0  0  0  0  0  0  0  0  0
    5.1432   -1.1521    0.0000 C   0  0  0  0  0  0  0  0  0  0  0  0
    4.4797   -2.3042    0.0000 C   0  0  0  0  0  0  0  0  0  0  0  0
    3.1476   -2.3042    0.0000 C   0  0  0  0  0  0  0  0  0  0  0  0
    0.0000   -1.8155    0.0000 O   0  0  0  0  0  0  0  0  0  0  0  0
  1  2  1  0  0  0  0
  1  9  1  0  0  0  0
  2  3  1  0  0  0  0
  2  9  1  0  0  0  0
  3  4  2  0  0  0  0
  3  8  1  0  0  0  0
  4  5  1  0  0  0  0
  5  6  2  0  0  0  0
  6  7  1  0  0  0  0
  7  8  2  0  0  0  0
M  END
>  <ActivityOutcome_CPDBAS_Rat>
active

>  <cdk:Formula>
[]

>  <TD50_Rat_mmol>
0.461

>  <net.bioclipse.cdk.fingerprint>
AgAAAAAAAAAAAAACAAAAAAABAAAAAAAAgAQAAAAAAAAIAABgAAAAAAAAAAAAAAAQIAIAAAAAACBAAAAAQAAAAAAMCAAAAAAAAAAAAAAABAAAAgAAAAAAAACAEAAAAoAAIAAAAEAgBAAAAAACQAgECACAFACAAAAAAAEAAAAAQAA=

$$$$

 OpenBabel04131118512D

 12 11  0  0  0  0  0  0  0  0999 V2000
    2.3006   -3.9862    0.0000 S   0  0  0  0  0  0  0  0  0  0  0  0
    2.3006   -2.6598    0.0000 C   0  0  0  0  0  0  0  0  0  0  0  0
    1.1537   -1.9897    0.0000 N   0  0  0  0  0  0  0  0  0  0  0  0
    1.1537   -0.6632    0.0000 C   0  0  0  0  0  0  0  0  0  0  0  0
    0.0000    0.0000    0.0000 C   0  0  0  0  0  0  0  0  0  0  0  0
    0.0000   -2.6598    0.0000 C   0  0  0  0  0  0  0  0  0  0  0  0
    0.0000   -3.9862    0.0000 C   0  0  0  0  0  0  0  0  0  0  0  0
    3.4543   -1.9897    0.0000 S   0  0  0  0  0  0  0  0  0  0  0  0
    4.6080   -2.6598    0.0000 C   0  0  0  0  0  0  0  0  0  0  0  0
    5.7548   -1.9897    0.0000 C   0  0  0  0  0  0  0  0  0  0  0  0
    5.7548   -0.6632    0.0000 C   0  0  0  0  0  0  0  0  0  0  0  0
    6.9086   -2.6598    0.0000 Cl  0  0  0  0  0  0  0  0  0  0  0  0
  1  2  2  0  0  0  0
  2  3  1  0  0  0  0
  2  8  1  0  0  0  0
  3  4  1  0  0  0  0
  3  6  1  0  0  0  0
  4  5  1  0  0  0  0
  6  7  1  0  0  0  0
  8  9  1  0  0  0  0
  9 10  1  0  0  0  0
 10 11  2  0  0  0  0
 10 12  1  0  0  0  0
M  END
>  <ActivityOutcome_CPDBAS_Rat>
active

>  <cdk:Formula>
[]

>  <TD50_Rat_mmol>
0.117

>  <net.bioclipse.cdk.fingerprint>
QBAAAgAAAAIAAAAAgAAAAAAAAAAAAAAAAAEAAAAAAAAAAeAAAAAEAAAAAAAIAAAgAAIAgwAQACAAQASAAACBAAAABAAAAAAQAIAAgAAAgAAAAADBAQgEABAAAAAgAAAAAAAAAAAAAAAAAACAAAAAICIAAACAAAABAAGAAAoAAA==

$$$$

 OpenBabel04131118512D

 23 24  0  0  0  0  0  0  0  0999 V2000
    0.0000   -2.3040    0.0000 C   0  0  0  0  0  0  0  0  0  0  0  0
    0.6682   -1.1520    0.0000 C   0  0  0  0  0  0  0  0  0  0  0  0
    0.0000    0.0000    0.0000 O   0  0  0  0  0  0  0  0  0  0  0  0
    1.9929   -1.1520    0.0000 N   0  0  0  0  0  0  0  0  0  0  0  0
    2.6611   -2.3040    0.0000 C   0  0  0  0  0  0  0  0  0  0  0  0
    3.9859   -2.3040    0.0000 C   0  0  0  0  0  0  0  0  0  0  0  0
    4.6540   -3.4560    0.0000 C   0  0  0  0  0  0  0  0  0  0  0  0
    3.9859   -4.6080    0.0000 C   0  0  0  0  0  0  0  0  0  0  0  0
    2.6611   -4.6080    0.0000 C   0  0  0  0  0  0  0  0  0  0  0  0
    1.9929   -3.4560    0.0000 C   0  0  0  0  0  0  0  0  0  0  0  0
    4.6540   -5.7600    0.0000 S   0  0  0  0  0  0  0  0  0  0  0  0
    3.5021   -6.4281    0.0000 O   0  0  0  0  0  0  0  0  0  0  0  0
    5.8060   -5.0918    0.0000 O   0  0  0  0  0  0  0  0  0  0  0  0
    5.3222   -6.9120    0.0000 C   0  0  0  0  0  0  0  0  0  0  0  0
    4.6540   -8.0639    0.0000 C   0  0  0  0  0  0  0  0  0  0  0  0
    5.3222   -9.2159    0.0000 C   0  0  0  0  0  0  0  0  0  0  0  0
    6.6470   -9.2159    0.0000 C   0  0  0  0  0  0  0  0  0  0  0  0
    7.3151  -10.3679    0.0000 N   0  0  0  0  0  0  0  0  0  0  0  0
    8.6515  -10.3679    0.0000 C   0  0  0  0  0  0  0  0  0  0  0  0
    9.3081  -11.5199    0.0000 C   0  0  0  0  0  0  0  0  0  0  0  0
    9.3081   -9.2159    0.0000 O   0  0  0  0  0  0  0  0  0  0  0  0
    7.3151   -8.0639    0.0000 C   0  0  0  0  0  0  0  0  0  0  0  0
    6.6470   -6.9120    0.0000 C   0  0  0  0  0  0  0  0  0  0  0  0
  1  2  1  0  0  0  0
  2  3  2  0  0  0  0
  2  4  1  0  0  0  0
  4  5  1  0  0  0  0
  5  6  2  0  0  0  0
  5 10  1  0  0  0  0
  6  7  1  0  0  0  0
  7  8  2  0  0  0  0
  8  9  1  0  0  0  0
  8 11  1  0  0  0  0
  9 10  2  0  0  0  0
 11 12  2  0  0  0  0
 11 13  2  0  0  0  0
 11 14  1  0  0  0  0
 14 15  2  0  0  0  0
 14 23  1  0  0  0  0
 15 16  1  0  0  0  0
 16 17  2  0  0  0  0
 17 18  1  0  0  0  0
 17 22  1  0  0  0  0
 18 19  1  0  0  0  0
 19 20  1  0  0  0  0
 19 21  2  0  0  0  0
 22 23  2  0  0  0  0
M  END
>  <ActivityOutcome_CPDBAS_Rat>
active

>  <cdk:Formula>
[]

>  <TD50_Rat_mmol>
0.167

>  <net.bioclipse.cdk.fingerprint>
AICgAAAAACAiAAAAAAAAAAABAAAgAABAAQAAEAAMwgIAAAFgAAAABAAAEACAAACAIAAEAAAQAgBAAAAQgASAAMAAQAAAABEAIEAEASSAAJAAICAAgAAAACABABAAAAAAIABQAIIgQAAAAEACgBAAAAAEAACAcCBgAYAEAAADEAA=

$$$$

 OpenBabel04131118512D

 27 28  0  0  0  0  0  0  0  0999 V2000
    1.8242    0.0000    0.0000 C   0  0  0  0  0  0  0  0  0  0  0  0
    2.2425   -1.3013    0.0000 C   0  0  0  0  0  0  0  0  0  0  0  0
    1.3362   -2.3122    0.0000 C   0  0  0  0  0  0  0  0  0  0  0  0
    1.7545   -3.6019    0.0000 C   0  0  0  0  0  0  0  0  0  0  0  0
    0.8366   -4.6244    0.0000 O   0  0  0  0  0  0  0  0  0  0  0  0
    3.0907   -3.8924    0.0000 O   0  0  0  0  0  0  0  0  0  0  0  0
    3.5090   -5.1821    0.0000 C   0  0  1  0  0  0  0  0  0  0  0  0
    4.7987   -5.6120    0.0000 C   0  0  0  0  0  0  0  0  0  0  0  0
    4.7987   -6.9715    0.0000 N   0  0  0  0  0  0  0  0  0  0  0  0
    6.1000   -7.3898    0.0000 C   0  0  0  0  0  0  0  0  0  0  0  0
    6.9017   -6.2859    0.0000 C   0  0  0  0  0  0  0  0  0  0  0  0
    6.1000   -5.1821    0.0000 C   0  0  0  0  0  0  0  0  0  0  0  0
    6.5183   -3.8924    0.0000 C   0  0  0  0  0  0  0  0  0  0  0  0
    7.8545   -3.6019    0.0000 O   0  0  0  0  0  0  0  0  0  0  0  0
    8.2728   -2.3122    0.0000 C   0  0  0  0  0  0  0  0  0  0  0  0
    7.3665   -1.3013    0.0000 O   0  0  0  0  0  0  0  0  0  0  0  0
    9.6090   -2.0333    0.0000 C   0  0  0  0  0  0  0  0  0  0  0  0
    9.8879   -3.3579    0.0000 C   0  0  0  0  0  0  0  0  0  0  0  0
    8.8770   -4.2758    0.0000 O   0  0  0  0  0  0  0  0  0  0  0  0
   10.9336   -1.7429    0.0000 C   0  0  0  0  0  0  0  0  0  0  0  0
    9.3185   -0.6971    0.0000 O   0  0  0  0  0  0  0  0  0  0  0  0
    3.5090   -7.3898    0.0000 C   0  0  0  0  0  0  0  0  0  0  0  0
    2.7073   -6.2859    0.0000 C   0  0  0  0  0  0  0  0  0  0  0  0
    0.0000   -2.0333    0.0000 C   0  0  0  0  0  0  0  0  0  0  0  0
   10.8987   -3.9389    0.0000 C   0  0  0  0  0  0  0  0  0  0  0  0
   11.6191   -0.6623    0.0000 C   0  0  0  0  0  0  0  0  0  0  0  0
   11.4216   -2.3935    0.0000 C   0  0  0  0  0  0  0  0  0  0  0  0
  1  2  1  0  0  0  0
  2  3  2  0  0  0  0
  3  4  1  0  0  0  0
  3 24  1  0  0  0  0
  4  5  2  0  0  0  0
  4  6  1  0  0  0  0
  7  6  1  1  0  0  0
  7  8  1  0  0  0  0
  7 23  1  0  0  0  0
  8  9  1  0  0  0  0
  8 12  1  0  0  0  0
  9 10  1  0  0  0  0
  9 22  1  0  0  0  0
 10 11  1  0  0  0  0
 11 12  2  0  0  0  0
 12 13  1  0  0  0  0
 13 14  1  0  0  0  0
 14 15  1  0  0  0  0
 15 16  2  0  0  0  0
 15 17  1  0  0  0  0
 17 18  1  0  0  0  0
 17 20  1  0  0  0  0
 17 21  1  0  0  0  0
 18 19  1  0  0  0  0
 18 25  1  0  0  0  0
 20 26  1  0  0  0  0
 20 27  1  0  0  0  0
 22 23  1  0  0  0  0
M  END
>  <ActivityOutcome_CPDBAS_Rat>
active

>  <cdk:Formula>
[]

>  <TD50_Rat_mmol>
0.00501

>  <net.bioclipse.cdk.fingerprint>
AtCYBUkCAgBqAQiCBAMBQREUQgIABDEC4TAEAIMAACASAwBgRIwAAAACAAkIAADZbAYyBkSQEAIgAEAjwUAQQAAABAQOUgHAAAQAIVagUMgBAAhTIGBEQCAhMgQCAEIogQhIRwABAACBCAggQBAgB7UACYAE8HvACEpoQQBCACA=

$$$$

 OpenBabel04131118512D

 16 16  0  0  0  0  0  0  0  0999 V2000
    7.3956   -2.1643    0.0000 C   0  0  0  0  0  0  0  0  0  0  0  0
    8.0587   -3.3156    0.0000 C   0  0  0  0  0  0  0  0  0  0  0  0
    9.2099   -2.6525    0.0000 C   0  0  0  0  0  0  0  0  0  0  0  0
    8.7218   -4.4668    0.0000 C   0  0  0  0  0  0  0  0  0  0  0  0
    6.9074   -3.9879    0.0000 N   0  0  0  0  0  0  0  0  0  0  0  0
    5.7562   -3.3156    0.0000 C   0  0  0  0  0  0  0  0  0  0  0  0
    4.6050   -3.9879    0.0000 C   0  0  0  0  0  0  0  0  0  0  0  0
    4.6050   -5.3141    0.0000 O   0  0  0  0  0  0  0  0  0  0  0  0
    3.4537   -3.3156    0.0000 C   0  0  0  0  0  0  0  0  0  0  0  0
    2.3025   -3.9879    0.0000 C   0  0  0  0  0  0  0  0  0  0  0  0
    1.1512   -3.3156    0.0000 C   0  0  0  0  0  0  0  0  0  0  0  0
    0.0000   -3.9879    0.0000 O   0  0  0  0  0  0  0  0  0  0  0  0
    1.1512   -1.9893    0.0000 C   0  0  0  0  0  0  0  0  0  0  0  0
    2.3025   -1.3262    0.0000 C   0  0  0  0  0  0  0  0  0  0  0  0
    3.4537   -1.9893    0.0000 C   0  0  0  0  0  0  0  0  0  0  0  0
    2.3025    0.0000    0.0000 O   0  0  0  0  0  0  0  0  0  0  0  0
  1  2  1  0  0  0  0
  2  3  1  0  0  0  0
  2  4  1  0  0  0  0
  2  5  1  0  0  0  0
  5  6  1  0  0  0  0
  6  7  1  0  0  0  0
  7  8  1  0  0  0  0
  7  9  1  0  0  0  0
  9 10  2  0  0  0  0
  9 15  1  0  0  0  0
 10 11  1  0  0  0  0
 11 12  1  0  0  0  0
 11 13  2  0  0  0  0
 13 14  1  0  0  0  0
 14 15  2  0  0  0  0
 14 16  1  0  0  0  0
M  END
>  <ActivityOutcome_CPDBAS_Rat>
active

>  <cdk:Formula>
[]

>  <TD50_Rat_mmol>
1.82

>  <net.bioclipse.cdk.fingerprint>
EAAAAACAAgACEgABAAAAAAACAAAAAAACAAAAAAQIiAACYQAACoCIAAAAAgAACCAAECAIAAAgQACCAMAAAAAABAwAAAAAAAAAAhAAAACAAAAAQCAAAAAAgBAAAACAACAAAABAJCQAAwAAAkAABAgAgBQAgAABBAABAAAAAgAA

$$$$

 OpenBabel04131118512D

 18 20  0  0  0  0  0  0  0  0999 V2000
    9.2104   -2.6618    0.0000 Cl  0  0  0  0  0  0  0  0  0  0  0  0
    8.0591   -1.9986    0.0000 C   0  0  0  0  0  0  0  0  0  0  0  0
    6.9078   -2.6618    0.0000 C   0  0  0  0  0  0  0  0  0  0  0  0
    5.7565   -1.9986    0.0000 C   0  0  0  0  0  0  0  0  0  0  0  0
    5.7565   -0.6631    0.0000 C   0  0  0  0  0  0  0  0  0  0  0  0
    6.9078    0.0000    0.0000 C   0  0  0  0  0  0  0  0  0  0  0  0
    8.0591   -0.6631    0.0000 C   0  0  0  0  0  0  0  0  0  0  0  0
    9.2104    0.0000    0.0000 Cl  0  0  0  0  0  0  0  0  0  0  0  0
    4.6052    0.0000    0.0000 O   0  0  0  0  0  0  0  0  0  0  0  0
    3.4539   -0.6631    0.0000 C   0  0  0  0  0  0  0  0  0  0  0  0
    3.4539   -1.9986    0.0000 C   0  0  0  0  0  0  0  0  0  0  0  0
    2.3026   -2.6618    0.0000 C   0  0  0  0  0  0  0  0  0  0  0  0
    1.1513   -1.9986    0.0000 C   0  0  0  0  0  0  0  0  0  0  0  0
    1.1513   -0.6631    0.0000 C   0  0  0  0  0  0  0  0  0  0  0  0
    2.3026    0.0000    0.0000 C   0  0  0  0  0  0  0  0  0  0  0  0
    0.0000    0.0000    0.0000 Cl  0  0  0  0  0  0  0  0  0  0  0  0
    0.0000   -2.6618    0.0000 Cl  0  0  0  0  0  0  0  0  0  0  0  0
    4.6052   -2.6618    0.0000 O   0  0  0  0  0  0  0  0  0  0  0  0
  1  2  1  0  0  0  0
  2  3  2  0  0  0  0
  2  7  1  0  0  0  0
  3  4  1  0  0  0  0
  4  5  2  0  0  0  0
  4 18  1  0  0  0  0
  5  6  1  0  0  0  0
  5  9  1  0  0  0  0
  6  7  2  0  0  0  0
  7  8  1  0  0  0  0
  9 10  1  0  0  0  0
 10 11  2  0  0  0  0
 10 15  1  0  0  0  0
 11 12  1  0  0  0  0
 11 18  1  0  0  0  0
 12 13  2  0  0  0  0
 13 14  1  0  0  0  0
 13 17  1  0  0  0  0
 14 15  2  0  0  0  0
 14 16  1  0  0  0  0
M  END
>  <ActivityOutcome_CPDBAS_Rat>
active

>  <cdk:Formula>
[]

>  <TD50_Rat_mmol>
0.000000073

>  <net.bioclipse.cdk.fingerprint>
EAAAAAAAAAAAAA4AAAAAAAAAAAqAACiAgABAAAAAAIAAAuEAAAAEEAAAAAAAAAAoABAgAIAAAGBAAAAgAAABAAYUAAAAAAIAAAAGAAAAgAQIAQAAAAAACQECAAAAAAAhAAADgCIkIAAQAhIAAABgAAAAAIAAAAgAAAAAACAAAA==

$$$$

 OpenBabel04131118512D

  6  5  0  0  0  0  0  0  0  0999 V2000
    1.3307    0.0000    0.0000 Cl  0  0  0  0  0  0  0  0  0  0  0  0
    1.9943   -1.1509    0.0000 C   0  0  0  0  0  0  0  0  0  0  0  0
    1.3307   -2.3053    0.0000 C   0  0  0  0  0  0  0  0  0  0  0  0
    1.9943   -3.4563    0.0000 Cl  0  0  0  0  0  0  0  0  0  0  0  0
    0.0000   -2.3053    0.0000 Cl  0  0  0  0  0  0  0  0  0  0  0  0
    3.3250   -1.1509    0.0000 Cl  0  0  0  0  0  0  0  0  0  0  0  0
  1  2  1  0  0  0  0
  2  3  2  0  0  0  0
  2  6  1  0  0  0  0
  3  4  1  0  0  0  0
  3  5  1  0  0  0  0
M  END
>  <ActivityOutcome_CPDBAS_Rat>
active

>  <cdk:Formula>
[]

>  <TD50_Rat_mmol>
0.874

>  <net.bioclipse.cdk.fingerprint>
AMAAAAAAAAAAAAAAAAAAAAAABAAQAAAAQAAAAAABAAAAAAAAAAAAAAAAAAAAAAAAAACAAAAAAAAAAAAAAAAAAAAAAAAAAAAAAAAAAAAAAAAAAAAAAAAAAAAAAAAAAA==

$$$$

 OpenBabel04131118512D

  6  5  0  0  0  0  0  0  0  0999 V2000
    3.4542   -1.1537    0.0000 F   0  0  0  0  0  0  0  0  0  0  0  0
    2.3040   -0.4870    0.0000 C   0  0  0  0  0  0  0  0  0  0  0  0
    1.1503   -1.1537    0.0000 C   0  0  0  0  0  0  0  0  0  0  0  0
    1.8169   -2.3040    0.0000 F   0  0  0  0  0  0  0  0  0  0  0  0
    0.0000   -1.8169    0.0000 F   0  0  0  0  0  0  0  0  0  0  0  0
    0.4870    0.0000    0.0000 F   0  0  0  0  0  0  0  0  0  0  0  0
  1  2  1  0  0  0  0
  2  3  1  0  0  0  0
  3  4  1  0  0  0  0
  3  5  1  0  0  0  0
  3  6  1  0  0  0  0
M  END
>  <ActivityOutcome_CPDBAS_Rat>
active

>  <cdk:Formula>
[]

>  <TD50_Rat_mmol>
293

>  <net.bioclipse.cdk.fingerprint>
MAAAQAAAAAAgAAAAAAAAACAAAAAAAAAAAAAAAAAAAAAAAAAAAAAABAAAAAAAAAAAAAAAAAAAAAAAAAAAAAAAAAAAAAAAAAAAAAAAAAAAAAAAAAAAAAAAAAAAAAAAAAAA

$$$$

 OpenBabel04131118512D

  6  5  0  0  0  0  0  0  0  0999 V2000
    2.6600   -2.3036    0.0000 F   0  0  0  0  0  0  0  0  0  0  0  0
    0.0000   -2.3036    0.0000 F   0  0  0  0  0  0  0  0  0  0  0  0
    0.6730   -1.1598    0.0000 C   0  0  0  0  0  0  0  0  0  0  0  0
    1.9870   -1.1598    0.0000 C   0  0  0  0  0  0  0  0  0  0  0  0
    0.0000    0.0000    0.0000 F   0  0  0  0  0  0  0  0  0  0  0  0
    2.6600    0.0000    0.0000 F   0  0  0  0  0  0  0  0  0  0  0  0
  1  4  1  0  0  0  0
  2  3  1  0  0  0  0
  3  4  2  0  0  0  0
  3  5  1  0  0  0  0
  4  6  1  0  0  0  0
M  END
>  <ActivityOutcome_CPDBAS_Rat>
active

>  <cdk:Formula>
[]

>  <TD50_Rat_mmol>
1.07

>  <net.bioclipse.cdk.fingerprint>
EAAAQAAAIAAgAAAAAAAAAAAAAAAAABAAAAAAAAAAAAAAAAAAAAAAAAAAAAAAAAAAAAAAAAAAAAAAAAAAAAAAAAAAAAAAAAAAAAAAAAAAAAAAAQAAAAAAAAAAAAAAAAAA

$$$$

 OpenBabel04131118512D

  8  8  0  0  0  0  0  0  0  0999 V2000
    0.6656   -2.3042    0.0000 C   0  0  0  0  0  0  0  0  0  0  0  0
    0.0000   -1.1544    0.0000 C   0  0  0  0  0  0  0  0  0  0  0  0
    0.6656    0.0000    0.0000 C   0  0  0  0  0  0  0  0  0  0  0  0
    1.9969    0.0000    0.0000 C   0  0  0  0  0  0  0  0  0  0  0  0
    2.6579   -1.1544    0.0000 N   0  0  0  0  0  0  0  0  0  0  0  0
    1.9969   -2.3042    0.0000 O   0  0  0  0  0  0  0  0  0  0  0  0
    3.9892   -1.1544    0.0000 N   0  0  0  0  0  0  0  0  0  0  0  0
    4.6549   -2.3042    0.0000 O   0  0  0  0  0  0  0  0  0  0  0  0
  1  2  1  0  0  0  0
  1  6  1  0  0  0  0
  2  3  1  0  0  0  0
  3  4  1  0  0  0  0
  4  5  1  0  0  0  0
  5  6  1  0  0  0  0
  5  7  1  0  0  0  0
  7  8  2  0  0  0  0
M  END
>  <ActivityOutcome_CPDBAS_Rat>
active

>  <cdk:Formula>
[]

>  <TD50_Rat_mmol>
0.209

>  <net.bioclipse.cdk.fingerprint>
KgAACgABgAABAAAAABAAAAAgAAAAAEAEAQABZQAAAAAAAIQAAAABEDAEAwAGAAEAAAAAAEAAAAAAAAAAAAAAQAAAAAAAAAAAAgAQAAAAAAAAABAAAAAAISAEBCAAAAgIAAEAAAAQAAAAIAAABABQAAAAAAAAAwAA

$$$$

 OpenBabel04131118512D

  5  5  0  0  0  0  0  0  0  0999 V2000
    1.0798    0.0000    0.0000 O   0  0  0  0  0  0  0  0  0  0  0  0
    0.0000   -0.7451    0.0000 C   0  0  0  0  0  0  0  0  0  0  0  0
    2.1597   -0.7451    0.0000 C   0  0  0  0  0  0  0  0  0  0  0  0
    0.4298   -2.0323    0.0000 C   0  0  0  0  0  0  0  0  0  0  0  0
    1.7472   -2.0323    0.0000 C   0  0  0  0  0  0  0  0  0  0  0  0
  1  2  1  0  0  0  0
  1  3  1  0  0  0  0
  2  4  1  0  0  0  0
  3  5  1  0  0  0  0
  4  5  1  0  0  0  0
M  END
>  <ActivityOutcome_CPDBAS_Rat>
active

>  <cdk:Formula>
[]

>  <TD50_Rat_mmol>
5.64

>  <net.bioclipse.cdk.fingerprint>
AgAAAAAAAAAAAAAAAIAAAAAAAAAAAAAAYACAAAAAAAAAAAAAECACAAAAAAAAAAAAAEAAAAAAAAAAAAAAAAAAAAAAAAAAAAAAAAAAAEAAABAAAAAAAAAAAAAAAAAAAAAAAAAQAAAAAAAAAAAQAAAAAAAAAAAA

$$$$

 OpenBabel04131118512D

 13 12  0  0  0  0  0  0  0  0999 V2000
    0.8414    0.0000    0.0000 O   0  0  0  0  0  0  0  0  0  0  0  0
    1.9939   -0.6660    0.0000 N   0  3  0  0  0  0  0  0  0  0  0  0
    1.9939   -1.9939    0.0000 C   0  0  0  0  0  0  0  0  0  0  0  0
    3.3218   -1.9939    0.0000 N   0  3  0  0  0  0  0  0  0  0  0  0
    3.9878   -3.1463    0.0000 O   0  0  0  0  0  0  0  0  0  0  0  0
    3.9878   -0.8414    0.0000 O   0  5  0  0  0  0  0  0  0  0  0  0
    1.9939   -3.3218    0.0000 N   0  3  0  0  0  0  0  0  0  0  0  0
    3.1463   -3.9878    0.0000 O   0  0  0  0  0  0  0  0  0  0  0  0
    0.8414   -3.9878    0.0000 O   0  5  0  0  0  0  0  0  0  0  0  0
    0.6660   -1.9939    0.0000 N   0  3  0  0  0  0  0  0  0  0  0  0
    0.0000   -3.1463    0.0000 O   0  0  0  0  0  0  0  0  0  0  0  0
    0.0000   -0.8414    0.0000 O   0  5  0  0  0  0  0  0  0  0  0  0
    3.1463    0.0000    0.0000 O   0  5  0  0  0  0  0  0  0  0  0  0
  1  2  2  0  0  0  0
  2  3  1  0  0  0  0
  2 13  1  0  0  0  0
  3  4  1  0  0  0  0
  3  7  1  0  0  0  0
  3 10  1  0  0  0  0
  4  5  2  0  0  0  0
  4  6  1  0  0  0  0
  7  8  2  0  0  0  0
  7  9  1  0  0  0  0
 10 11  2  0  0  0  0
 10 12  1  0  0  0  0
M  CHG  8   2   1   4   1   6  -1   7   1   9  -1  10   1  12  -1  13  -1
M  END
>  <ActivityOutcome_CPDBAS_Rat>
active

>  <cdk:Formula>
[]

>  <TD50_Rat_mmol>
0.00228

>  <net.bioclipse.cdk.fingerprint>
BAAAAAAAAAAEEAAIAAAAAAAABAAAABAAAAAAAAAAAAQAAABgAAAAAAAAAAAAAAAAAAAAAAIAAAAAAAAAAAAAAAAAAAAAAAAAAAAAAAAAAAAAAAAAAAAAAAAAAAAAAAAAAAAEAAAAAAAAAAAAAAAEAAAAAAAAAAAAAAAIAAACAAA=

$$$$

 OpenBabel04131118512D

 11 13  0  0  0  0  0  0  0  0999 V2000
    0.0000   -2.4817    0.0000 S   0  0  0  0  0  0  0  0  0  0  0  0
    1.3302   -2.4817    0.0000 P   0  0  0  0  0  0  0  0  0  0  0  0
    1.3302   -1.1515    0.0000 N   0  0  0  0  0  0  0  0  0  0  0  0
    0.6651    0.0000    0.0000 C   0  0  0  0  0  0  0  0  0  0  0  0
    1.9953    0.0000    0.0000 C   0  0  0  0  0  0  0  0  0  0  0  0
    2.6604   -2.4817    0.0000 N   0  0  0  0  0  0  0  0  0  0  0  0
    3.8119   -1.8166    0.0000 C   0  0  0  0  0  0  0  0  0  0  0  0
    3.8119   -3.1468    0.0000 C   0  0  0  0  0  0  0  0  0  0  0  0
    1.3302   -3.8119    0.0000 N   0  0  0  0  0  0  0  0  0  0  0  0
    1.9953   -4.9634    0.0000 C   0  0  0  0  0  0  0  0  0  0  0  0
    0.6651   -4.9634    0.0000 C   0  0  0  0  0  0  0  0  0  0  0  0
  1  2  2  0  0  0  0
  2  3  1  0  0  0  0
  2  6  1  0  0  0  0
  2  9  1  0  0  0  0
  3  4  1  0  0  0  0
  3  5  1  0  0  0  0
  4  5  1  0  0  0  0
  6  7  1  0  0  0  0
  6  8  1  0  0  0  0
  7  8  1  0  0  0  0
  9 10  1  0  0  0  0
  9 11  1  0  0  0  0
 10 11  1  0  0  0  0
M  END
>  <ActivityOutcome_CPDBAS_Rat>
active

>  <cdk:Formula>
[]

>  <TD50_Rat_mmol>
0.000867

>  <net.bioclipse.cdk.fingerprint>
AgAAAAAAAAAAAAEAAAAAAAAAAAAAAAAAAAEBYAAAAAAAAAAAAAAAACAAAAEAAAAAAAAAAIAAAAAAAAQAAAAAAAAAAAAAgAAAAgAAAAAAAAAAAQAAAAAAAAQABAAQAAAEAAAAAAAAAAAAAAAAACAAAAAACAAAAgAA

$$$$

 OpenBabel04131118512D

  4  3  0  0  0  0  0  0  0  0999 V2000
    1.9950    0.0000    0.0000 C   0  0  0  0  0  0  0  0  0  0  0  0
    1.3292   -1.1518    0.0000 C   0  0  0  0  0  0  0  0  0  0  0  0
    1.9950   -2.3037    0.0000 S   0  0  0  0  0  0  0  0  0  0  0  0
    0.0000   -1.1518    0.0000 N   0  0  0  0  0  0  0  0  0  0  0  0
  1  2  1  0  0  0  0
  2  3  2  0  0  0  0
  2  4  1  0  0  0  0
M  END
>  <ActivityOutcome_CPDBAS_Rat>
active

>  <cdk:Formula>
[]

>  <TD50_Rat_mmol>
0.153

>  <net.bioclipse.cdk.fingerprint>
AgAAAAAAAAAAAAAAAAAAAAAAAAAAAAAAAAABYAAAAAAAAAAAAAAAACAAAAAAAAAAAAAAAAAAAAAAAAAAAAAAAAAAAAAAAAAAAAAAAAAAAAAAEAAAAAAAAAAAAAAAAAAAAAAAAAAAAAAAAAAAAAAAAAAAAUAAAgAA

$$$$

 OpenBabel04131118512D

 15 16  0  0  0  0  0  0  0  0999 V2000
    1.3265   -1.1560    0.0000 C   0  0  0  0  0  0  0  0  0  0  0  0
    1.9898   -2.3025    0.0000 C   0  0  0  0  0  0  0  0  0  0  0  0
    3.3258   -2.3025    0.0000 C   0  0  0  0  0  0  0  0  0  0  0  0
    3.9891   -1.1560    0.0000 C   0  0  0  0  0  0  0  0  0  0  0  0
    3.3258    0.0000    0.0000 C   0  0  0  0  0  0  0  0  0  0  0  0
    1.9898    0.0000    0.0000 C   0  0  0  0  0  0  0  0  0  0  0  0
    5.3156   -1.1560    0.0000 S   0  0  0  0  0  0  0  0  0  0  0  0
    6.3200   -2.0277    0.0000 C   0  0  0  0  0  0  0  0  0  0  0  0
    6.1399   -3.3447    0.0000 C   0  0  0  0  0  0  0  0  0  0  0  0
    7.1917   -4.1596    0.0000 C   0  0  0  0  0  0  0  0  0  0  0  0
    8.4235   -3.6574    0.0000 C   0  0  0  0  0  0  0  0  0  0  0  0
    8.6035   -2.3404    0.0000 C   0  0  0  0  0  0  0  0  0  0  0  0
    7.5517   -1.5255    0.0000 C   0  0  0  0  0  0  0  0  0  0  0  0
    0.0000   -1.1560    0.0000 N   0  0  0  0  0  0  0  0  0  0  0  0
    9.4752   -4.4723    0.0000 N   0  0  0  0  0  0  0  0  0  0  0  0
  1  2  2  0  0  0  0
  1  6  1  0  0  0  0
  1 14  1  0  0  0  0
  2  3  1  0  0  0  0
  3  4  2  0  0  0  0
  4  5  1  0  0  0  0
  4  7  1  0  0  0  0
  5  6  2  0  0  0  0
  7  8  1  0  0  0  0
  8  9  2  0  0  0  0
  8 13  1  0  0  0  0
  9 10  1  0  0  0  0
 10 11  2  0  0  0  0
 11 12  1  0  0  0  0
 11 15  1  0  0  0  0
 12 13  2  0  0  0  0
M  END
>  <ActivityOutcome_CPDBAS_Rat>
active

>  <cdk:Formula>
[]

>  <TD50_Rat_mmol>
0.0172

>  <net.bioclipse.cdk.fingerprint>
AIAAAAAAAAAgAAAAAAAAAAAAAAAgAABAAAAAEAAMAAIAAAFgAAAABAAAAACAAAAAAAAAAAAQAABAAAAQAACAAAAAAAAAAAAAAAAAAAAAAAAAICAAgAAAACAAABAAAAAAIAAAAIAgQAAAAEACgBAAAAAEAACAAAAAAQAAAAADEAA=

$$$$

 OpenBabel04131118512D

 19 21  0  0  0  0  0  0  0  0999 V2000
    1.1046   -1.9079    0.0000 N   0  0  0  0  0  0  0  0  0  0  0  0
    1.1046   -3.1714    0.0000 C   0  0  0  0  0  0  0  0  0  0  0  0
    2.2091   -3.8074    0.0000 N   0  0  0  0  0  0  0  0  0  0  0  0
    3.2969   -3.1714    0.0000 C   0  0  0  0  0  0  0  0  0  0  0  0
    3.2969   -1.9079    0.0000 C   0  0  0  0  0  0  0  0  0  0  0  0
    2.2091   -1.2719    0.0000 C   0  0  0  0  0  0  0  0  0  0  0  0
    2.2091    0.0000    0.0000 S   0  0  0  0  0  0  0  0  0  0  0  0
    4.5103   -1.5146    0.0000 N   0  0  0  0  0  0  0  0  0  0  0  0
    5.2634   -2.5355    0.0000 C   0  0  0  0  0  0  0  0  0  0  0  0
    4.5103   -3.5731    0.0000 N   0  0  0  0  0  0  0  0  0  0  0  0
    4.5019   -6.0667    0.0000 C   0  0  1  0  0  0  0  0  0  0  0  0
    4.1337   -7.2967    0.0000 C   0  0  0  0  0  0  0  0  0  0  0  0
    2.8618   -7.3218    0.0000 C   0  0  1  0  0  0  0  0  0  0  0  0
    2.4434   -6.1169    0.0000 C   0  0  2  0  0  0  0  0  0  0  0  0
    3.4475   -5.3470    0.0000 O   0  0  0  0  0  0  0  0  0  0  0  0
    1.2217   -5.7571    0.0000 C   0  0  0  0  0  0  0  0  0  0  0  0
    0.9288   -4.5186    0.0000 O   0  0  0  0  0  0  0  0  0  0  0  0
    2.1422   -8.3678    0.0000 O   0  0  0  0  0  0  0  0  0  0  0  0
    0.0000   -3.8074    0.0000 N   0  0  0  0  0  0  0  0  0  0  0  0
  1  2  1  0  0  0  0
  1  6  1  0  0  0  0
  2  3  2  0  0  0  0
  2 19  1  0  0  0  0
  3  4  1  0  0  0  0
  4  5  2  0  0  0  0
  4 10  1  0  0  0  0
  5  6  1  0  0  0  0
  5  8  1  0  0  0  0
  6  7  2  0  0  0  0
  8  9  2  0  0  0  0
  9 10  1  0  0  0  0
 11 10  1  1  0  0  0
 11 12  1  0  0  0  0
 11 15  1  0  0  0  0
 12 13  1  0  0  0  0
 13 14  1  0  0  0  0
 13 18  1  6  0  0  0
 14 15  1  0  0  0  0
 14 16  1  1  0  0  0
 16 17  1  0  0  0  0
M  END
>  <ActivityOutcome_CPDBAS_Rat>
active

>  <cdk:Formula>
[]

>  <TD50_Rat_mmol>
0.00741

>  <net.bioclipse.cdk.fingerprint>
JOAQgqCAYiWyVOBmEjFsnCRgdkCikgEFsIAPVBNEIDQYkS3wFIHGkBLiCIYKDHgZbhcqjqIS4QHhAAKAwiJAcBMQB4GkIBDIAVIsYlAAIMCSeBSVx/kAbCBUUUJAYeIQCQABcGyz05YkYELAAhRDlFtCAUEAkXkIoEIRwAIDNkI=

$$$$

 OpenBabel04131118512D

  8  8  0  0  0  0  0  0  0  0999 V2000
    4.6080   -2.6588    0.0000 O   0  0  0  0  0  0  0  0  0  0  0  0
    3.4560   -1.9953    0.0000 C   0  0  0  0  0  0  0  0  0  0  0  0
    2.3040   -2.6588    0.0000 N   0  0  0  0  0  0  0  0  0  0  0  0
    1.1520   -1.9953    0.0000 C   0  0  0  0  0  0  0  0  0  0  0  0
    0.0000   -2.6588    0.0000 S   0  0  0  0  0  0  0  0  0  0  0  0
    1.1520   -0.6635    0.0000 N   0  0  0  0  0  0  0  0  0  0  0  0
    2.3040    0.0000    0.0000 C   0  0  0  0  0  0  0  0  0  0  0  0
    3.4560   -0.6635    0.0000 C   0  0  0  0  0  0  0  0  0  0  0  0
  1  2  2  0  0  0  0
  2  3  1  0  0  0  0
  2  8  1  0  0  0  0
  3  4  1  0  0  0  0
  4  5  2  0  0  0  0
  4  6  1  0  0  0  0
  6  7  1  0  0  0  0
  7  8  2  0  0  0  0
M  END
>  <ActivityOutcome_CPDBAS_Rat>
active

>  <cdk:Formula>
[]

>  <TD50_Rat_mmol>
0.0929

>  <net.bioclipse.cdk.fingerprint>
QUAgAAAAAAACEABAAAAQAAAAAAAAAEAAAAAAAgAAAAACABFgAAAAgAAAAAAAiABAIAAAAAEAEAgAACIAgAAAAIAAAAABAAABAAAAAAAAAIAAAAAAAIAAAAAQAAAAEAAIAABAAAABAAAAAgAgAAAAAAAAQAAEdIAAAEABEAACIAA=

$$$$

 OpenBabel04131118512D

  4  3  0  0  0  0  0  0  0  0999 V2000
    1.9950    0.0000    0.0000 N   0  0  0  0  0  0  0  0  0  0  0  0
    1.3292   -1.1518    0.0000 C   0  0  0  0  0  0  0  0  0  0  0  0
    1.9950   -2.3037    0.0000 S   0  0  0  0  0  0  0  0  0  0  0  0
    0.0000   -1.1518    0.0000 N   0  0  0  0  0  0  0  0  0  0  0  0
  1  2  1  0  0  0  0
  2  3  2  0  0  0  0
  2  4  1  0  0  0  0
M  END
>  <ActivityOutcome_CPDBAS_Rat>
active

>  <cdk:Formula>
[]

>  <TD50_Rat_mmol>
1.29

>  <net.bioclipse.cdk.fingerprint>
EAAAAAAAAAAAAAAAAAAAAAAAAAAAAAAAAAFgAAAAAAAAAAAAAAAAAAAAAAAAAAAAAAAAAAAAAAAAAAAAAAAAAAAAAAAAAAAAAAAAAAAAAAAQAAAAAAAAAAAAAAAAAAAAAAAAAAAAAAAAAAAAAAAAAAABAAACAAA=

$$$$

 OpenBabel04131118512D

  7  7  0  0  0  0  0  0  0  0999 V2000
    0.0000   -1.1496    0.0000 C   0  0  0  0  0  0  0  0  0  0  0  0
    1.3292   -1.1496    0.0000 C   0  0  0  0  0  0  0  0  0  0  0  0
    1.9958    0.0000    0.0000 C   0  0  0  0  0  0  0  0  0  0  0  0
    3.3250    0.0000    0.0000 C   0  0  0  0  0  0  0  0  0  0  0  0
    3.9916   -1.1496    0.0000 C   0  0  0  0  0  0  0  0  0  0  0  0
    3.3250   -2.3032    0.0000 C   0  0  0  0  0  0  0  0  0  0  0  0
    1.9958   -2.3032    0.0000 C   0  0  0  0  0  0  0  0  0  0  0  0
  1  2  1  0  0  0  0
  2  3  2  0  0  0  0
  2  7  1  0  0  0  0
  3  4  1  0  0  0  0
  4  5  2  0  0  0  0
  5  6  1  0  0  0  0
  6  7  2  0  0  0  0
M  END
>  <ActivityOutcome_CPDBAS_Rat>
active

>  <cdk:Formula>
[]

>  <TD50_Rat_mmol>
33.2

>  <net.bioclipse.cdk.fingerprint>
QAAAAAAAAAAAAAAAACAAAAAAAAAAQAAAAAAAAAAABAAAAAAAAAAAAAAAAAAAAAAAAAAAAAAAgAAAAACAACAAAABAIAAAAAAAAkAAAAAAAAAAgAAAAAAAAAAAAAAA

$$$$

 OpenBabel04131118512D

 11 11  0  0  0  0  0  0  0  0999 V2000
    2.6588    0.0000    0.0000 C   0  0  0  0  0  0  0  0  0  0  0  0
    1.9941   -1.1486    0.0000 C   0  0  0  0  0  0  0  0  0  0  0  0
    2.6588   -2.3025    0.0000 C   0  0  0  0  0  0  0  0  0  0  0  0
    1.9941   -3.4564    0.0000 C   0  0  0  0  0  0  0  0  0  0  0  0
    0.6647   -3.4564    0.0000 C   0  0  0  0  0  0  0  0  0  0  0  0
    0.0000   -2.3025    0.0000 C   0  0  0  0  0  0  0  0  0  0  0  0
    0.6647   -1.1486    0.0000 C   0  0  0  0  0  0  0  0  0  0  0  0
    3.9882   -2.3025    0.0000 S   0  0  0  0  0  0  0  0  0  0  0  0
    3.9882   -0.9731    0.0000 O   0  0  0  0  0  0  0  0  0  0  0  0
    3.9882   -3.6319    0.0000 O   0  0  0  0  0  0  0  0  0  0  0  0
    5.3175   -2.3025    0.0000 N   0  0  0  0  0  0  0  0  0  0  0  0
  1  2  1  0  0  0  0
  2  3  2  0  0  0  0
  2  7  1  0  0  0  0
  3  4  1  0  0  0  0
  3  8  1  0  0  0  0
  4  5  2  0  0  0  0
  5  6  1  0  0  0  0
  6  7  2  0  0  0  0
  8  9  2  0  0  0  0
  8 10  2  0  0  0  0
  8 11  1  0  0  0  0
M  END
>  <ActivityOutcome_CPDBAS_Rat>
active

>  <cdk:Formula>
[]

>  <TD50_Rat_mmol>
23.1

>  <net.bioclipse.cdk.fingerprint>
AIAAAAAAAAAAAAAAAAAAAAEAQAAAEAAAAAAQAAAAAAAACWAAAAAAAAAAAAAAAAAgAEABABAAAEAIAAAAAIAgAAQAAAAAEQAAQAAIIAAAAAAAAAKAAAAAAIEAAAAAgAAgAAAAwCEAAAAAAAJAEAAAAAAgAIAAICABAAAAAAAAAA==

$$$$

 OpenBabel04131118512D

 17 20  0  0  0  0  0  0  0  0999 V2000
    7.2655   -5.1440    0.0000 C   0  0  0  0  0  0  0  0  0  0  0  0
    6.5971   -6.2919    0.0000 C   0  0  0  0  0  0  0  0  0  0  0  0
    5.9359   -5.1440    0.0000 N   0  0  0  0  0  0  0  0  0  0  0  0
    4.7807   -4.4756    0.0000 C   0  0  0  0  0  0  0  0  0  0  0  0
    3.6328   -5.1440    0.0000 C   0  0  0  0  0  0  0  0  0  0  0  0
    2.4848   -4.4756    0.0000 C   0  0  0  0  0  0  0  0  0  0  0  0
    1.3296   -5.1440    0.0000 O   0  0  0  0  0  0  0  0  0  0  0  0
    2.4848   -3.1460    0.0000 C   0  0  0  0  0  0  0  0  0  0  0  0
    1.3296   -2.4775    0.0000 N   0  0  0  0  0  0  0  0  0  0  0  0
    0.0000   -2.4775    0.0000 C   0  0  0  0  0  0  0  0  0  0  0  0
    0.6684   -1.3296    0.0000 C   0  0  0  0  0  0  0  0  0  0  0  0
    4.7807   -3.1460    0.0000 C   0  0  0  0  0  0  0  0  0  0  0  0
    5.9359   -2.4775    0.0000 O   0  0  0  0  0  0  0  0  0  0  0  0
    3.6328   -2.4775    0.0000 C   0  0  0  0  0  0  0  0  0  0  0  0
    3.6328   -1.1480    0.0000 N   0  0  0  0  0  0  0  0  0  0  0  0
    2.9643    0.0000    0.0000 C   0  0  0  0  0  0  0  0  0  0  0  0
    4.3012    0.0000    0.0000 C   0  0  0  0  0  0  0  0  0  0  0  0
  1  2  1  0  0  0  0
  1  3  1  0  0  0  0
  2  3  1  0  0  0  0
  3  4  1  0  0  0  0
  4  5  2  0  0  0  0
  4 12  1  0  0  0  0
  5  6  1  0  0  0  0
  6  7  2  0  0  0  0
  6  8  1  0  0  0  0
  8  9  1  0  0  0  0
  8 14  2  0  0  0  0
  9 10  1  0  0  0  0
  9 11  1  0  0  0  0
 10 11  1  0  0  0  0
 12 13  2  0  0  0  0
 12 14  1  0  0  0  0
 14 15  1  0  0  0  0
 15 16  1  0  0  0  0
 15 17  1  0  0  0  0
 16 17  1  0  0  0  0
M  END
>  <ActivityOutcome_CPDBAS_Rat>
active

>  <cdk:Formula>
[]

>  <TD50_Rat_mmol>
0.0000218

>  <net.bioclipse.cdk.fingerprint>
QBBQAAAARAIQCAIAQQAAAQEAEIAEQAAAIIACQAAQAAAAgGAAAAAAAAAABAAgAAAiADAAACAQAFAQAADAAAQAAAAIGIVAAQAAAQAACIAAwgAABAAwAgAAAAEAEAAQAAABCEAYAgSACAACAAAAAAACgAAQAAY4CAAAEAAACGKAAA==

$$$$

 OpenBabel04131118512D

 31 35  0  0  0  0  0  0  0  0999 V2000
    8.2043   -2.0076    0.0000 C   0  0  1  0  0  0  0  0  0  0  0  0
    6.9395   -2.4253    0.0000 C   0  0  2  0  0  0  0  0  0  0  0  0
    4.6650   -3.7366    0.0000 C   0  0  2  0  0  0  0  0  0  0  0  0
    3.4929   -4.3981    0.0000 C   0  0  2  0  0  0  0  0  0  0  0  0
    6.9395   -3.7366    0.0000 C   0  0  0  0  0  0  0  0  0  0  0  0
    5.7790   -4.4097    0.0000 C   0  0  0  0  0  0  0  0  0  0  0  0
    8.9934   -3.0984    0.0000 C   0  0  2  0  0  0  0  0  0  0  0  0
    3.4929   -5.7442    0.0000 C   0  0  0  0  0  0  0  0  0  0  0  0
    9.0050   -0.9516    0.0000 O   0  0  0  0  0  0  0  0  0  0  0  0
    4.6650   -2.4253    0.0000 C   0  0  2  0  0  0  0  0  0  0  0  0
    5.7790   -1.7639    0.0000 C   0  0  0  0  0  0  0  0  0  0  0  0
   10.2583   -1.3577    0.0000 C   0  0  0  0  0  0  0  0  0  0  0  0
   10.2583   -2.6922    0.0000 O   0  0  0  0  0  0  0  0  0  0  0  0
    2.3325   -3.7366    0.0000 C   0  0  0  0  0  0  0  0  0  0  0  0
    8.2043   -4.1428    0.0000 C   0  0  0  0  0  0  0  0  0  0  0  0
    8.2043   -0.6731    0.0000 C   0  0  0  0  0  0  0  0  0  0  0  0
    2.3325   -6.4289    0.0000 C   0  0  0  0  0  0  0  0  0  0  0  0
    5.7790   -5.7442    0.0000 C   0  0  0  0  0  0  0  0  0  0  0  0
    1.1720   -4.4097    0.0000 C   0  0  0  0  0  0  0  0  0  0  0  0
    1.1720   -5.7326    0.0000 C   0  0  0  0  0  0  0  0  0  0  0  0
    4.6650   -6.4289    0.0000 C   0  0  0  0  0  0  0  0  0  0  0  0
    4.6766   -5.0131    0.0000 F   0  0  0  0  0  0  0  0  0  0  0  0
    9.3880    0.0000    0.0000 O   0  0  0  0  0  0  0  0  0  0  0  0
    0.0000   -6.4173    0.0000 O   0  0  0  0  0  0  0  0  0  0  0  0
    6.9395   -1.0676    0.0000 C   0  0  0  0  0  0  0  0  0  0  0  0
    3.4929   -1.7523    0.0000 O   0  0  0  0  0  0  0  0  0  0  0  0
    3.4929   -3.0752    0.0000 C   0  0  0  0  0  0  0  0  0  0  0  0
    7.0671    0.0000    0.0000 C   0  0  0  0  0  0  0  0  0  0  0  0
   11.6044   -1.3577    0.0000 C   0  0  0  0  0  0  0  0  0  0  0  0
   10.6065   -0.0580    0.0000 C   0  0  0  0  0  0  0  0  0  0  0  0
    5.9067   -0.7079    0.0000 O   0  0  0  0  0  0  0  0  0  0  0  0
  1  2  1  0  0  0  0
  1  7  1  0  0  0  0
  1  9  1  6  0  0  0
  1 16  1  1  0  0  0
  2  5  1  0  0  0  0
  2 11  1  0  0  0  0
  2 25  1  1  0  0  0
  3 10  1  0  0  0  0
  3  4  1  0  0  0  0
  3 22  1  6  0  0  0
  3  6  1  0  0  0  0
  4  8  1  0  0  0  0
  4 14  1  0  0  0  0
  4 27  1  1  0  0  0
  5  6  1  0  0  0  0
  5 15  1  0  0  0  0
  6 18  1  0  0  0  0
  7 13  1  6  0  0  0
  7 15  1  0  0  0  0
  8 17  2  0  0  0  0
  8 21  1  0  0  0  0
  9 12  1  0  0  0  0
 10 11  1  0  0  0  0
 10 26  1  1  0  0  0
 12 29  1  0  0  0  0
 12 30  1  0  0  0  0
 12 13  1  0  0  0  0
 14 19  2  0  0  0  0
 16 23  2  0  0  0  0
 16 28  1  0  0  0  0
 17 20  1  0  0  0  0
 18 21  1  0  0  0  0
 19 20  1  0  0  0  0
 20 24  2  0  0  0  0
 28 31  1  0  0  0  0
M  END
>  <ActivityOutcome_CPDBAS_Rat>
active

>  <cdk:Formula>
[]

>  <TD50_Rat_mmol>
0.000122

>  <net.bioclipse.cdk.fingerprint>
AMAAIgAhAAEQIJQDFQQUABAkAAqAREAAwAAAEEABCACxUQjgCICCACAAAQEhEAEYJCJiAACYGABAABAiRGAEgAAEAEEESABEAAU0AEBAAQAAAAAIQCAEQARBMQAAAEIAAQBIQAAAQAEgAAIAoBAUgZAAAAAAsDigCAABRFYhBCA=

$$$$

 OpenBabel04131118512D

  4  3  0  0  0  0  0  0  0  0999 V2000
    1.3292   -1.1518    0.0000 C   0  0  0  0  0  0  0  0  0  0  0  0
    1.9950    0.0000    0.0000 Br  0  0  0  0  0  0  0  0  0  0  0  0
    1.9950   -2.3037    0.0000 Br  0  0  0  0  0  0  0  0  0  0  0  0
    0.0000   -1.1518    0.0000 Br  0  0  0  0  0  0  0  0  0  0  0  0
  1  2  1  0  0  0  0
  1  3  1  0  0  0  0
  1  4  1  0  0  0  0
M  END
>  <ActivityOutcome_CPDBAS_Rat>
active

>  <cdk:Formula>
[]

>  <TD50_Rat_mmol>
2.56

>  <net.bioclipse.cdk.fingerprint>
AIAAAADAAAAAAAAAAAAAAAAAAAAAAAAAAAAAAAAAAAAAAAAAAAAAAAAAAAAAAAEAAAAAAAAAAAAAAAAAAAAAAAAAAAAAAAAAAAAAAAAAAAAAAAAAAAAAAAAAAAAAAAAAAAA=

$$$$

 OpenBabel04131118512D

 17 16  0  0  0  0  0  0  0  0999 V2000
    9.9273   -3.3256    0.0000 C   0  0  0  0  0  0  0  0  0  0  0  0
    8.7757   -3.9908    0.0000 C   0  0  0  0  0  0  0  0  0  0  0  0
    7.6241   -3.3256    0.0000 C   0  0  0  0  0  0  0  0  0  0  0  0
    6.4726   -3.9908    0.0000 C   0  0  0  0  0  0  0  0  0  0  0  0
    5.3210   -3.3256    0.0000 O   0  0  0  0  0  0  0  0  0  0  0  0
    5.3210   -1.9954    0.0000 P   0  0  0  0  0  0  0  0  0  0  0  0
    6.6513   -1.9954    0.0000 O   0  0  0  0  0  0  0  0  0  0  0  0
    3.9908   -1.9954    0.0000 O   0  0  0  0  0  0  0  0  0  0  0  0
    3.3256   -3.1469    0.0000 C   0  0  0  0  0  0  0  0  0  0  0  0
    1.9954   -3.1469    0.0000 C   0  0  0  0  0  0  0  0  0  0  0  0
    1.3303   -4.2985    0.0000 C   0  0  0  0  0  0  0  0  0  0  0  0
    0.0000   -4.2985    0.0000 C   0  0  0  0  0  0  0  0  0  0  0  0
    5.3210   -0.6651    0.0000 O   0  0  0  0  0  0  0  0  0  0  0  0
    6.4726    0.0000    0.0000 C   0  0  0  0  0  0  0  0  0  0  0  0
    7.6241   -0.6651    0.0000 C   0  0  0  0  0  0  0  0  0  0  0  0
    8.7757    0.0000    0.0000 C   0  0  0  0  0  0  0  0  0  0  0  0
    9.9273   -0.6651    0.0000 C   0  0  0  0  0  0  0  0  0  0  0  0
  1  2  1  0  0  0  0
  2  3  1  0  0  0  0
  3  4  1  0  0  0  0
  4  5  1  0  0  0  0
  5  6  1  0  0  0  0
  6  7  2  0  0  0  0
  6  8  1  0  0  0  0
  6 13  1  0  0  0  0
  8  9  1  0  0  0  0
  9 10  1  0  0  0  0
 10 11  1  0  0  0  0
 11 12  1  0  0  0  0
 13 14  1  0  0  0  0
 14 15  1  0  0  0  0
 15 16  1  0  0  0  0
 16 17  1  0  0  0  0
M  END
>  <ActivityOutcome_CPDBAS_Rat>
active

>  <cdk:Formula>
[]

>  <TD50_Rat_mmol>
0.717

>  <net.bioclipse.cdk.fingerprint>
AgAgAgAAAAAAAAAAAAAACAAAAIAgAAAAAAgBYAAAAEAAAAAAAAQAECACAAAAAAAAAAAAAEQAAgAAAQAAgAAAAABAAAAAACAAAAAAAAAAAAAABBAAAIAAAAAAQAAAAAQIAgAAAQAUAAAAAAAAAAAQAAAAAAAAAIAA

$$$$

 OpenBabel04131118512D

 33 32  0  0  0  0  0  0  0  0999 V2000
    5.7724   -7.3216    0.0000 O   0  0  0  0  0  0  0  0  0  0  0  0
    6.9158   -7.9855    0.0000 C   0  0  0  0  0  0  0  0  0  0  0  0
    8.0777   -7.3216    0.0000 O   0  0  0  0  0  0  0  0  0  0  0  0
    8.0777   -5.9753    0.0000 C   0  0  0  0  0  0  0  0  0  0  0  0
    9.2211   -5.3114    0.0000 C   0  0  0  0  0  0  0  0  0  0  0  0
   10.3645   -5.9753    0.0000 O   0  0  0  0  0  0  0  0  0  0  0  0
   11.5264   -5.3114    0.0000 C   0  0  0  0  0  0  0  0  0  0  0  0
   12.6698   -5.9753    0.0000 O   0  0  0  0  0  0  0  0  0  0  0  0
   11.5264   -3.9835    0.0000 C   0  0  0  0  0  0  0  0  0  0  0  0
   12.6698   -3.3196    0.0000 C   0  0  0  0  0  0  0  0  0  0  0  0
   13.8317   -3.9835    0.0000 C   0  0  0  0  0  0  0  0  0  0  0  0
   14.9936   -3.3196    0.0000 C   0  0  0  0  0  0  0  0  0  0  0  0
   16.1370   -3.9835    0.0000 C   0  0  0  0  0  0  0  0  0  0  0  0
   17.2804   -3.3196    0.0000 C   0  0  0  0  0  0  0  0  0  0  0  0
   18.4423   -3.9835    0.0000 C   0  0  0  0  0  0  0  0  0  0  0  0
    6.9158   -5.3114    0.0000 C   0  0  0  0  0  0  0  0  0  0  0  0
    5.7724   -5.9753    0.0000 O   0  0  0  0  0  0  0  0  0  0  0  0
    4.6106   -5.3114    0.0000 C   0  0  0  0  0  0  0  0  0  0  0  0
    4.6106   -3.9835    0.0000 O   0  0  0  0  0  0  0  0  0  0  0  0
    3.4487   -5.9753    0.0000 C   0  0  0  0  0  0  0  0  0  0  0  0
    2.3053   -5.3114    0.0000 C   0  0  0  0  0  0  0  0  0  0  0  0
    2.3053   -3.9835    0.0000 C   0  0  0  0  0  0  0  0  0  0  0  0
    1.1434   -3.3196    0.0000 C   0  0  0  0  0  0  0  0  0  0  0  0
    1.1434   -1.9918    0.0000 C   0  0  0  0  0  0  0  0  0  0  0  0
    0.0000   -1.3278    0.0000 C   0  0  0  0  0  0  0  0  0  0  0  0
    0.0000    0.0000    0.0000 C   0  0  0  0  0  0  0  0  0  0  0  0
    6.9158   -9.3133    0.0000 C   0  0  0  0  0  0  0  0  0  0  0  0
    5.7724   -9.9773    0.0000 C   0  0  0  0  0  0  0  0  0  0  0  0
    4.6106   -9.3133    0.0000 C   0  0  0  0  0  0  0  0  0  0  0  0
    3.4487   -9.9773    0.0000 C   0  0  0  0  0  0  0  0  0  0  0  0
    2.3053   -9.3133    0.0000 C   0  0  0  0  0  0  0  0  0  0  0  0
    1.1434   -9.9773    0.0000 C   0  0  0  0  0  0  0  0  0  0  0  0
    0.0000   -9.3133    0.0000 C   0  0  0  0  0  0  0  0  0  0  0  0
  1  2  2  0  0  0  0
  2  3  1  0  0  0  0
  2 27  1  0  0  0  0
  3  4  1  0  0  0  0
  4  5  1  0  0  0  0
  4 16  1  0  0  0  0
  5  6  1  0  0  0  0
  6  7  1  0  0  0  0
  7  8  2  0  0  0  0
  7  9  1  0  0  0  0
  9 10  1  0  0  0  0
 10 11  1  0  0  0  0
 11 12  1  0  0  0  0
 12 13  1  0  0  0  0
 13 14  1  0  0  0  0
 14 15  1  0  0  0  0
 16 17  1  0  0  0  0
 17 18  1  0  0  0  0
 18 19  2  0  0  0  0
 18 20  1  0  0  0  0
 20 21  1  0  0  0  0
 21 22  1  0  0  0  0
 22 23  1  0  0  0  0
 23 24  1  0  0  0  0
 24 25  1  0  0  0  0
 25 26  1  0  0  0  0
 27 28  1  0  0  0  0
 28 29  1  0  0  0  0
 29 30  1  0  0  0  0
 30 31  1  0  0  0  0
 31 32  1  0  0  0  0
 32 33  1  0  0  0  0
M  END
>  <ActivityOutcome_CPDBAS_Rat>
active

>  <cdk:Formula>
[]

>  <TD50_Rat_mmol>
11.7

>  <net.bioclipse.cdk.fingerprint>
AICEAAAAAAAAAAACUQAAAhAkAAAICAEAwAAABYAAAAABAQBgQIAAAAAgAAEgAABYJAIgAAAAAAABAAAgQEAAAAAAAAAAAgCAAAQEAEQAERAAAAABACAEQAABEAAAAEIgAABIJAAAQAAAAAAAABAAAQAAAAAAWLAAAAgAAgQAAAA=

$$$$

 OpenBabel04131118512D

  5  4  0  0  0  0  0  0  0  0999 V2000
    3.4567   -1.9945    0.0000 Cl  0  0  0  0  0  0  0  0  0  0  0  0
    2.3056   -1.3308    0.0000 C   0  0  0  0  0  0  0  0  0  0  0  0
    1.1511   -1.9945    0.0000 C   0  0  0  0  0  0  0  0  0  0  0  0
    0.0000   -1.3308    0.0000 Cl  0  0  0  0  0  0  0  0  0  0  0  0
    2.3056    0.0000    0.0000 Cl  0  0  0  0  0  0  0  0  0  0  0  0
  1  2  1  0  0  0  0
  2  3  2  0  0  0  0
  2  5  1  0  0  0  0
  3  4  1  0  0  0  0
M  END
>  <ActivityOutcome_CPDBAS_Rat>
active

>  <cdk:Formula>
[]

>  <TD50_Rat_mmol>
5.08

>  <net.bioclipse.cdk.fingerprint>
AMAAAAAAAAAAAAAAAAAAAAAABAAQAAAAQAAAAAABAAAAAAAAAAAAAAAAAAAAAAAAAACAAAAAAAAAAAAAAAAAAAAAAAAAAAAAAAAAAAAAAAAAAAAAAAAAAAAAAAAAAA==

$$$$

 OpenBabel04131118512D

 10 10  0  0  0  0  0  0  0  0999 V2000
    5.3182   -2.3028    0.0000 O   0  0  0  0  0  0  0  0  0  0  0  0
    3.9887   -2.3028    0.0000 C   0  0  0  0  0  0  0  0  0  0  0  0
    3.3239   -3.4568    0.0000 C   0  0  0  0  0  0  0  0  0  0  0  0
    1.9943   -3.4568    0.0000 C   0  0  0  0  0  0  0  0  0  0  0  0
    1.3296   -2.3028    0.0000 C   0  0  0  0  0  0  0  0  0  0  0  0
    1.9943   -1.1487    0.0000 C   0  0  0  0  0  0  0  0  0  0  0  0
    3.3239   -1.1487    0.0000 C   0  0  0  0  0  0  0  0  0  0  0  0
    3.9887    0.0000    0.0000 Cl  0  0  0  0  0  0  0  0  0  0  0  0
    0.0000   -2.3028    0.0000 Cl  0  0  0  0  0  0  0  0  0  0  0  0
    3.9887   -4.6056    0.0000 Cl  0  0  0  0  0  0  0  0  0  0  0  0
  1  2  1  0  0  0  0
  2  3  2  0  0  0  0
  2  7  1  0  0  0  0
  3  4  1  0  0  0  0
  3 10  1  0  0  0  0
  4  5  2  0  0  0  0
  5  6  1  0  0  0  0
  5  9  1  0  0  0  0
  6  7  2  0  0  0  0
  7  8  1  0  0  0  0
M  END
>  <ActivityOutcome_CPDBAS_Rat>
active

>  <cdk:Formula>
[]

>  <TD50_Rat_mmol>
2.05

>  <net.bioclipse.cdk.fingerprint>
CAAAAAAAAAAAAEIAAAAAAAAAAAAAAAAAAAAAAAAAAAAAAuEAAAAAAAAAAAAAAAAgAAAgAAAAAEAAAAQAAAABAAAAAAAAAAAAAAAAAAAAgAAEAAAAAAAAAQEAAAAAAAAgAAAAgCAkAAAAABIAAAAAAAAAAIAAAAAAAAAAAAAAAA==

$$$$

 OpenBabel04131118512D

  6  5  0  0  0  0  0  0  0  0999 V2000
    2.6616    0.0000    0.0000 Cl  0  0  0  0  0  0  0  0  0  0  0  0
    1.9952   -1.1492    0.0000 C   0  0  0  0  0  0  0  0  0  0  0  0
    2.6616   -2.3025    0.0000 C   0  0  0  0  0  0  0  0  0  0  0  0
    3.9905   -2.3025    0.0000 Cl  0  0  0  0  0  0  0  0  0  0  0  0
    0.6664   -1.1492    0.0000 C   0  0  0  0  0  0  0  0  0  0  0  0
    0.0000   -2.3025    0.0000 Cl  0  0  0  0  0  0  0  0  0  0  0  0
  1  2  1  0  0  0  0
  2  3  1  0  0  0  0
  2  5  1  0  0  0  0
  3  4  1  0  0  0  0
  5  6  1  0  0  0  0
M  END
>  <ActivityOutcome_CPDBAS_Rat>
active

>  <cdk:Formula>
[]

>  <TD50_Rat_mmol>
0.00916

>  <net.bioclipse.cdk.fingerprint>
AMAAAAAAAAAAAAAAAAAgAAAAAgAAAAAAAABAAAABAAAABAAAgAACAAAAAAAAAAAAAAAAAAAAAAAAAAAAAAAAAAAAAAAAAAAAAAAAAAAAAAAAAAAAAAAAAAAAAAAAAA==

$$$$

 OpenBabel04131118512D

 20 21  0  0  0  0  0  0  0  0999 V2000
   10.9905   -3.0631    0.0000 N   0  3  0  0  0  0  0  0  0  0  0  0
   10.7087   -4.3619    0.0000 O   0  5  0  0  0  0  0  0  0  0  0  0
   12.2525   -2.6465    0.0000 O   0  0  0  0  0  0  0  0  0  0  0  0
    9.9980   -2.1687    0.0000 C   0  0  0  0  0  0  0  0  0  0  0  0
    8.6993   -2.4505    0.0000 O   0  0  0  0  0  0  0  0  0  0  0  0
    8.0376   -1.2988    0.0000 C   0  0  0  0  0  0  0  0  0  0  0  0
    8.9198   -0.3063    0.0000 C   0  0  0  0  0  0  0  0  0  0  0  0
   10.1328   -0.8454    0.0000 C   0  0  0  0  0  0  0  0  0  0  0  0
    6.7144   -1.1517    0.0000 C   0  0  0  0  0  0  0  0  0  0  0  0
    5.8199   -2.1442    0.0000 N   0  0  0  0  0  0  0  0  0  0  0  0
    4.6069   -1.6051    0.0000 C   0  0  0  0  0  0  0  0  0  0  0  0
    4.7417   -0.2818    0.0000 S   0  0  0  0  0  0  0  0  0  0  0  0
    6.0405    0.0000    0.0000 C   0  0  0  0  0  0  0  0  0  0  0  0
    3.4552   -2.2667    0.0000 N   0  0  0  0  0  0  0  0  0  0  0  0
    2.3035   -1.6051    0.0000 C   0  0  0  0  0  0  0  0  0  0  0  0
    2.3035   -0.2696    0.0000 O   0  0  0  0  0  0  0  0  0  0  0  0
    1.1517   -2.2667    0.0000 C   0  0  0  0  0  0  0  0  0  0  0  0
    1.8134   -3.4184    0.0000 F   0  0  0  0  0  0  0  0  0  0  0  0
    0.0000   -2.9283    0.0000 F   0  0  0  0  0  0  0  0  0  0  0  0
    0.4901   -1.1150    0.0000 F   0  0  0  0  0  0  0  0  0  0  0  0
  1  2  1  0  0  0  0
  1  3  2  0  0  0  0
  1  4  1  0  0  0  0
  4  5  1  0  0  0  0
  4  8  2  0  0  0  0
  5  6  1  0  0  0  0
  6  7  2  0  0  0  0
  6  9  1  0  0  0  0
  7  8  1  0  0  0  0
  9 10  1  0  0  0  0
  9 13  2  0  0  0  0
 10 11  2  0  0  0  0
 11 12  1  0  0  0  0
 11 14  1  0  0  0  0
 12 13  1  0  0  0  0
 14 15  1  0  0  0  0
 15 16  2  0  0  0  0
 15 17  1  0  0  0  0
 17 18  1  0  0  0  0
 17 19  1  0  0  0  0
 17 20  1  0  0  0  0
M  CHG  2   1   1   2  -1
M  END
>  <ActivityOutcome_CPDBAS_Rat>
active

>  <cdk:Formula>
[]

>  <TD50_Rat_mmol>
0.0221

>  <net.bioclipse.cdk.fingerprint>
Jgb4wgsnYgBSCCWRsAABSqimgJEQwRABgEEELEImsQCRZIAmAARiGJUAEmEAAKQARwACQAQGwYKAAIAfoYCB1AIKVASEEgIQAIDALIzAEDgCRZALBAjUoACgIIiIhHAhVII1IKUA+CByAGCwqgMIANBIQtEAEAlIGAAWAgCH

$$$$

 OpenBabel04131118512D

 10 10  0  0  0  0  0  0  0  0999 V2000
    4.6084   -2.6590    0.0000 C   0  0  0  0  0  0  0  0  0  0  0  0
    3.4563   -1.9954    0.0000 C   0  0  0  0  0  0  0  0  0  0  0  0
    2.3042   -2.6590    0.0000 C   0  0  0  0  0  0  0  0  0  0  0  0
    1.1521   -1.9954    0.0000 C   0  0  0  0  0  0  0  0  0  0  0  0
    1.1521   -0.6636    0.0000 C   0  0  0  0  0  0  0  0  0  0  0  0
    2.3042    0.0000    0.0000 C   0  0  0  0  0  0  0  0  0  0  0  0
    3.4563   -0.6636    0.0000 C   0  0  0  0  0  0  0  0  0  0  0  0
    4.6084    0.0000    0.0000 C   0  0  0  0  0  0  0  0  0  0  0  0
    0.0000    0.0000    0.0000 N   0  0  0  0  0  0  0  0  0  0  0  0
    0.0000   -2.6590    0.0000 C   0  0  0  0  0  0  0  0  0  0  0  0
  1  2  1  0  0  0  0
  2  3  2  0  0  0  0
  2  7  1  0  0  0  0
  3  4  1  0  0  0  0
  4  5  2  0  0  0  0
  4 10  1  0  0  0  0
  5  6  1  0  0  0  0
  5  9  1  0  0  0  0
  6  7  2  0  0  0  0
  7  8  1  0  0  0  0
M  END
>  <ActivityOutcome_CPDBAS_Rat>
active

>  <cdk:Formula>
[]

>  <TD50_Rat_mmol>
0.249

>  <net.bioclipse.cdk.fingerprint>
IgAAAAAAAAEAAAAAAAAAQQAAAAAABAACAAAAYAAAAAAAAAAAAAAAAHAAAAAAAAAAQAAAAAAAAAAAFAAAAAAAAAAAAAAAAAAAAAAAAAAAgAAAgAAAAAiAACAAAABAIAAAAAAAAkAAAAAAAAAAgAACAAAAAAQAAhAA

$$$$

 OpenBabel04131118512D

  9  9  0  0  0  0  0  0  0  0999 V2000
    0.0000   -2.6589    0.0000 C   0  0  0  0  0  0  0  0  0  0  0  0
    1.1520   -1.9953    0.0000 C   0  0  0  0  0  0  0  0  0  0  0  0
    1.1520   -0.6636    0.0000 C   0  0  0  0  0  0  0  0  0  0  0  0
    2.3041    0.0000    0.0000 C   0  0  0  0  0  0  0  0  0  0  0  0
    3.4561   -0.6636    0.0000 C   0  0  0  0  0  0  0  0  0  0  0  0
    3.4561   -1.9953    0.0000 C   0  0  0  0  0  0  0  0  0  0  0  0
    2.3041   -2.6589    0.0000 C   0  0  0  0  0  0  0  0  0  0  0  0
    4.6082   -2.6589    0.0000 C   0  0  0  0  0  0  0  0  0  0  0  0
    0.0000    0.0000    0.0000 C   0  0  0  0  0  0  0  0  0  0  0  0
  1  2  1  0  0  0  0
  2  3  2  0  0  0  0
  2  7  1  0  0  0  0
  3  4  1  0  0  0  0
  3  9  1  0  0  0  0
  4  5  2  0  0  0  0
  5  6  1  0  0  0  0
  6  7  2  0  0  0  0
  6  8  1  0  0  0  0
M  END
>  <ActivityOutcome_CPDBAS_Rat>
active

>  <cdk:Formula>
[]

>  <TD50_Rat_mmol>
36.2

>  <net.bioclipse.cdk.fingerprint>
QAAAAAAAAAAAAAAAADAAAAAAAAAAQAAAAAAAAAAAFAAAAAAAAAAAAAAAAAAAAAAAAAAAgAAAgAAAAAiAACAAAABAIAAAAAAAAkAAAAAAAAAAgAAAAAAAAAQAAAAA

$$$$

 OpenBabel04131118512D

  7  6  0  0  0  0  0  0  0  0999 V2000
    0.0000   -2.3052    0.0000 S   0  0  0  0  0  0  0  0  0  0  0  0
    1.3306   -2.3052    0.0000 C   0  0  0  0  0  0  0  0  0  0  0  0
    1.9941   -1.1508    0.0000 N   0  0  0  0  0  0  0  0  0  0  0  0
    3.3247   -1.1508    0.0000 C   0  0  0  0  0  0  0  0  0  0  0  0
    1.3306    0.0000    0.0000 C   0  0  0  0  0  0  0  0  0  0  0  0
    1.9941   -3.4560    0.0000 N   0  0  0  0  0  0  0  0  0  0  0  0
    3.3247   -3.4560    0.0000 C   0  0  0  0  0  0  0  0  0  0  0  0
  1  2  2  0  0  0  0
  2  3  1  0  0  0  0
  2  6  1  0  0  0  0
  3  4  1  0  0  0  0
  3  5  1  0  0  0  0
  6  7  1  0  0  0  0
M  END
>  <ActivityOutcome_CPDBAS_Rat>
active

>  <cdk:Formula>
[]

>  <TD50_Rat_mmol>
0.218

>  <net.bioclipse.cdk.fingerprint>
EABAAAAAAAAAAAAAAAAAAAAAAAAAAAAAAAFgAAAAAAAAAAAACAAAAAAAAAAAAAAAAAAAgAAAAAAAAAAAAAAAAAAAAAAAAAAAAAAAAAAAAAAQAAAAAAAAAAAAAAAAAAAAAAAAAAAAAAAAQAAAAAAAAAABAAACAAA=

$$$$

 OpenBabel04131118512D

 15 14  0  0  0  0  0  0  0  0999 V2000
    5.7539    0.0000    0.0000 O   0  0  0  0  0  0  0  0  0  0  0  0
    5.7539   -1.3257    0.0000 N   0  3  0  0  0  0  0  0  0  0  0  0
    4.6031   -1.9885    0.0000 O   0  0  0  0  0  0  0  0  0  0  0  0
    4.6031   -3.3142    0.0000 C   0  0  0  0  0  0  0  0  0  0  0  0
    5.7539   -3.9863    0.0000 C   0  0  0  0  0  0  0  0  0  0  0  0
    6.9047   -3.3142    0.0000 O   0  0  0  0  0  0  0  0  0  0  0  0
    8.0554   -3.9863    0.0000 N   0  3  0  0  0  0  0  0  0  0  0  0
    8.0554   -5.3120    0.0000 O   0  0  0  0  0  0  0  0  0  0  0  0
    9.2062   -3.3142    0.0000 O   0  5  0  0  0  0  0  0  0  0  0  0
    3.4523   -3.9863    0.0000 C   0  0  0  0  0  0  0  0  0  0  0  0
    2.3016   -3.3142    0.0000 O   0  0  0  0  0  0  0  0  0  0  0  0
    1.1508   -3.9863    0.0000 N   0  3  0  0  0  0  0  0  0  0  0  0
    1.1508   -5.3120    0.0000 O   0  0  0  0  0  0  0  0  0  0  0  0
    0.0000   -3.3142    0.0000 O   0  5  0  0  0  0  0  0  0  0  0  0
    6.9047   -1.9885    0.0000 O   0  5  0  0  0  0  0  0  0  0  0  0
  1  2  2  0  0  0  0
  2  3  1  0  0  0  0
  2 15  1  0  0  0  0
  3  4  1  0  0  0  0
  4  5  1  0  0  0  0
  4 10  1  0  0  0  0
  5  6  1  0  0  0  0
  6  7  1  0  0  0  0
  7  8  2  0  0  0  0
  7  9  1  0  0  0  0
 10 11  1  0  0  0  0
 11 12  1  0  0  0  0
 12 13  2  0  0  0  0
 12 14  1  0  0  0  0
M  CHG  6   2   1   7   1   9  -1  12   1  14  -1  15  -1
M  END
>  <ActivityOutcome_CPDBAS_Rat>
active

>  <cdk:Formula>
[]

>  <TD50_Rat_mmol>
0.806

>  <net.bioclipse.cdk.fingerprint>
UAIAAAEAAAAAAAoAAACAAAAAAAAAAQIAAAAAAAAABAAQAGQAAAAAAAAAgAAAARggAAAACAAAAAAAAABAAIAAAAAAAAAAAAAAAACAAAAgAAAAAAAAAAAAAAAQAAGgKAAAIAQAAAAAAAAJAAAAAAAAACAAAAAAIABEAAAAAhAAAA==

$$$$

 OpenBabel04131118512D

 14 13  0  0  0  0  0  0  0  0999 V2000
    3.9465   -2.8373    0.0000 O   0  0  0  0  0  0  0  0  0  0  0  0
    4.6085   -3.9895    0.0000 P   0  0  0  0  0  0  0  0  0  0  0  0
    5.7607   -3.3274    0.0000 O   0  0  0  0  0  0  0  0  0  0  0  0
    5.7607   -1.9947    0.0000 C   0  0  0  0  0  0  0  0  0  0  0  0
    4.6085   -1.3327    0.0000 C   0  0  0  0  0  0  0  0  0  0  0  0
    4.6085    0.0000    0.0000 Cl  0  0  0  0  0  0  0  0  0  0  0  0
    5.2706   -5.1416    0.0000 O   0  0  0  0  0  0  0  0  0  0  0  0
    6.6033   -5.1416    0.0000 C   0  0  0  0  0  0  0  0  0  0  0  0
    7.2653   -3.9895    0.0000 C   0  0  0  0  0  0  0  0  0  0  0  0
    8.5980   -3.9895    0.0000 Cl  0  0  0  0  0  0  0  0  0  0  0  0
    3.4564   -4.6515    0.0000 O   0  0  0  0  0  0  0  0  0  0  0  0
    2.3043   -3.9895    0.0000 C   0  0  0  0  0  0  0  0  0  0  0  0
    1.1521   -4.6515    0.0000 C   0  0  0  0  0  0  0  0  0  0  0  0
    0.0000   -3.9895    0.0000 Cl  0  0  0  0  0  0  0  0  0  0  0  0
  1  2  2  0  0  0  0
  2  3  1  0  0  0  0
  2  7  1  0  0  0  0
  2 11  1  0  0  0  0
  3  4  1  0  0  0  0
  4  5  1  0  0  0  0
  5  6  1  0  0  0  0
  7  8  1  0  0  0  0
  8  9  1  0  0  0  0
  9 10  1  0  0  0  0
 11 12  1  0  0  0  0
 12 13  1  0  0  0  0
 13 14  1  0  0  0  0
M  END
>  <ActivityOutcome_CPDBAS_Rat>
active

>  <cdk:Formula>
[]

>  <TD50_Rat_mmol>
0.304

>  <net.bioclipse.cdk.fingerprint>
AgAAAAAAAAAAAAAACAAAAAAAAAAAAAgB4ACAAAAAAAAAAAQAACAAAAQCAAAAAAAAAAAAAgEAAQAIBAAAAABAAACAAAAAACAAAAAAAAAABBAAAAAAAABAQAAAAAQIAgAAAAAEAAAAAAAAAAAAAAAAAAAAAIAA

$$$$

 OpenBabel04131118512D

 20 19  0  0  0  0  0  0  0  0999 V2000
    5.3236   -3.9907    0.0000 O   0  0  0  0  0  0  0  0  0  0  0  0
    3.9907   -3.9907    0.0000 P   0  0  0  0  0  0  0  0  0  0  0  0
    3.9907   -5.3236    0.0000 O   0  0  0  0  0  0  0  0  0  0  0  0
    5.1400   -5.9861    0.0000 C   0  0  0  0  0  0  0  0  0  0  0  0
    5.1400   -7.3190    0.0000 C   0  0  0  0  0  0  0  0  0  0  0  0
    6.2974   -7.9814    0.0000 C   0  0  0  0  0  0  0  0  0  0  0  0
    7.4467   -7.3190    0.0000 Br  0  0  0  0  0  0  0  0  0  0  0  0
    3.9907   -7.9814    0.0000 Br  0  0  0  0  0  0  0  0  0  0  0  0
    2.6578   -3.9907    0.0000 O   0  0  0  0  0  0  0  0  0  0  0  0
    1.9954   -5.1400    0.0000 C   0  0  0  0  0  0  0  0  0  0  0  0
    0.6625   -5.1400    0.0000 C   0  0  0  0  0  0  0  0  0  0  0  0
    0.0000   -6.2974    0.0000 C   0  0  0  0  0  0  0  0  0  0  0  0
    0.6625   -7.4467    0.0000 Br  0  0  0  0  0  0  0  0  0  0  0  0
    0.0000   -3.9907    0.0000 Br  0  0  0  0  0  0  0  0  0  0  0  0
    3.9907   -2.6578    0.0000 O   0  0  0  0  0  0  0  0  0  0  0  0
    5.1400   -1.9954    0.0000 C   0  0  0  0  0  0  0  0  0  0  0  0
    5.1400   -0.6625    0.0000 C   0  0  0  0  0  0  0  0  0  0  0  0
    3.9907    0.0000    0.0000 C   0  0  0  0  0  0  0  0  0  0  0  0
    2.8414   -0.6625    0.0000 Br  0  0  0  0  0  0  0  0  0  0  0  0
    6.2974    0.0000    0.0000 Br  0  0  0  0  0  0  0  0  0  0  0  0
  1  2  2  0  0  0  0
  2  3  1  0  0  0  0
  2  9  1  0  0  0  0
  2 15  1  0  0  0  0
  3  4  1  0  0  0  0
  4  5  1  0  0  0  0
  5  6  1  0  0  0  0
  5  8  1  0  0  0  0
  6  7  1  0  0  0  0
  9 10  1  0  0  0  0
 10 11  1  0  0  0  0
 11 12  1  0  0  0  0
 11 14  1  0  0  0  0
 12 13  1  0  0  0  0
 15 16  1  0  0  0  0
 16 17  1  0  0  0  0
 17 18  1  0  0  0  0
 17 20  1  0  0  0  0
 18 19  1  0  0  0  0
M  END
>  <ActivityOutcome_CPDBAS_Rat>
active

>  <cdk:Formula>
[]

>  <TD50_Rat_mmol>
0.00549

>  <net.bioclipse.cdk.fingerprint>
AKIAAAoAAAAAAAAAAACgAAoAAACAAAACgAAIAeAgAABAAAAAAgAEABAgAgAAAAAAAAAAAABEAAKAAAEAAIAAAAAEQAAAQQAAAAAAAAAAAAAAQAQQAAAAAAAAAFAAAAAUCAIAAAIABAAAAAAAAAAAAAAAAAAAAACAAA==

$$$$

 OpenBabel04131118512D

 20 19  0  0  0  0  0  0  0  0999 V2000
    5.3180   -3.9865    0.0000 O   0  0  0  0  0  0  0  0  0  0  0  0
    3.9865   -3.9865    0.0000 P   0  0  0  0  0  0  0  0  0  0  0  0
    3.9865   -5.3180    0.0000 O   0  0  0  0  0  0  0  0  0  0  0  0
    5.1347   -5.9798    0.0000 C   0  0  0  0  0  0  0  0  0  0  0  0
    6.2908   -5.3180    0.0000 C   0  0  0  0  0  0  0  0  0  0  0  0
    6.2908   -3.9865    0.0000 Cl  0  0  0  0  0  0  0  0  0  0  0  0
    5.1347   -7.3113    0.0000 C   0  0  0  0  0  0  0  0  0  0  0  0
    6.2908   -7.9731    0.0000 Cl  0  0  0  0  0  0  0  0  0  0  0  0
    2.6550   -3.9865    0.0000 O   0  0  0  0  0  0  0  0  0  0  0  0
    1.9933   -5.1347    0.0000 C   0  0  0  0  0  0  0  0  0  0  0  0
    2.6550   -6.2908    0.0000 C   0  0  0  0  0  0  0  0  0  0  0  0
    3.9865   -6.2908    0.0000 Cl  0  0  0  0  0  0  0  0  0  0  0  0
    0.6618   -5.1347    0.0000 C   0  0  0  0  0  0  0  0  0  0  0  0
    0.0000   -6.2908    0.0000 Cl  0  0  0  0  0  0  0  0  0  0  0  0
    3.9865   -2.6550    0.0000 O   0  0  0  0  0  0  0  0  0  0  0  0
    5.1347   -1.9933    0.0000 C   0  0  0  0  0  0  0  0  0  0  0  0
    5.1347   -0.6618    0.0000 C   0  0  0  0  0  0  0  0  0  0  0  0
    3.9865    0.0000    0.0000 Cl  0  0  0  0  0  0  0  0  0  0  0  0
    6.2908   -2.6550    0.0000 C   0  0  0  0  0  0  0  0  0  0  0  0
    7.4389   -1.9933    0.0000 Cl  0  0  0  0  0  0  0  0  0  0  0  0
  1  2  2  0  0  0  0
  2  3  1  0  0  0  0
  2  9  1  0  0  0  0
  2 15  1  0  0  0  0
  3  4  1  0  0  0  0
  4  5  1  0  0  0  0
  4  7  1  0  0  0  0
  5  6  1  0  0  0  0
  7  8  1  0  0  0  0
  9 10  1  0  0  0  0
 10 11  1  0  0  0  0
 10 13  1  0  0  0  0
 11 12  1  0  0  0  0
 13 14  1  0  0  0  0
 15 16  1  0  0  0  0
 16 17  1  0  0  0  0
 16 19  1  0  0  0  0
 17 18  1  0  0  0  0
 19 20  1  0  0  0  0
M  END
>  <ActivityOutcome_CPDBAS_Rat>
active

>  <cdk:Formula>
[]

>  <TD50_Rat_mmol>
0.108

>  <net.bioclipse.cdk.fingerprint>
AgAAAAAAAAAAAAAACAAAAAAAAAAAAAgB4ACAAAAAAAAAAAQAACAAAAQCAAAAAAAAAEAAAgEAAQAIBACAAAJAAACAAAAAACAAAAAAAAAABBAAAAAAAABAQAAAAAQIAgAAAAAEAAAAAAAAAAAAAAAAAAAAAIAA

$$$$

 OpenBabel04131118512D

  8  8  0  0  0  0  0  0  0  0999 V2000
    4.6080   -2.6588    0.0000 O   0  0  0  0  0  0  0  0  0  0  0  0
    3.4560   -1.9953    0.0000 C   0  0  0  0  0  0  0  0  0  0  0  0
    2.3040   -2.6588    0.0000 N   0  0  0  0  0  0  0  0  0  0  0  0
    1.1520   -1.9953    0.0000 C   0  0  0  0  0  0  0  0  0  0  0  0
    0.0000   -2.6588    0.0000 O   0  0  0  0  0  0  0  0  0  0  0  0
    1.1520   -0.6635    0.0000 N   0  0  0  0  0  0  0  0  0  0  0  0
    2.3040    0.0000    0.0000 C   0  0  0  0  0  0  0  0  0  0  0  0
    3.4560   -0.6635    0.0000 C   0  0  0  0  0  0  0  0  0  0  0  0
  1  2  2  0  0  0  0
  2  3  1  0  0  0  0
  2  8  1  0  0  0  0
  3  4  1  0  0  0  0
  4  5  2  0  0  0  0
  4  6  1  0  0  0  0
  6  7  1  0  0  0  0
  7  8  2  0  0  0  0
M  END
>  <ActivityOutcome_CPDBAS_Rat>
active

>  <cdk:Formula>
[]

>  <TD50_Rat_mmol>
5.99

>  <net.bioclipse.cdk.fingerprint>
QEAgAAAwAAACEABAAAAQAAAAAAAAAEAAAAAAAgAAAAACAABgAAAAgAAAAAAAgAFAIAAAAAAAEAgCAAIAgAAAAIAAAAABAAABAAAAAAAAAIAAAAAAAIAACAAAAAAAEAAEAABAAAABAAAAAgAgAAAAAAAAQAAEdAAAAEAAEAACIAA=

$$$$

 OpenBabel04131118512D

  6  5  0  0  0  0  0  0  0  0999 V2000
    4.6084   -1.9954    0.0000 N   0  0  0  0  0  0  0  0  0  0  0  0
    3.4563   -1.3318    0.0000 C   0  0  0  0  0  0  0  0  0  0  0  0
    3.4563    0.0000    0.0000 O   0  0  0  0  0  0  0  0  0  0  0  0
    2.3042   -1.9954    0.0000 O   0  0  0  0  0  0  0  0  0  0  0  0
    1.1521   -1.3318    0.0000 C   0  0  0  0  0  0  0  0  0  0  0  0
    0.0000   -1.9954    0.0000 C   0  0  0  0  0  0  0  0  0  0  0  0
  1  2  1  0  0  0  0
  2  3  2  0  0  0  0
  2  4  1  0  0  0  0
  4  5  1  0  0  0  0
  5  6  1  0  0  0  0
M  END
>  <ActivityOutcome_CPDBAS_Rat>
active

>  <cdk:Formula>
[]

>  <TD50_Rat_mmol>
0.464

>  <net.bioclipse.cdk.fingerprint>
AIAAAAAAAAACAAAAAAAAAAAAAAAAgAAAAIAAAAAAAABgAAAAAAAAAAAAAABAIAIAAAAAAAAAAAAAAAAAAAAAAAAAAAAAAAAAAAAAAAAAAAAAAAAAAAAAEQAAAAAAAABAAAAAAAAAAEAAAAAAAAAAAAAAQAAAAAAAAAACAAA=

$$$$

 OpenBabel04131118512D

  6  5  0  0  0  0  0  0  0  0999 V2000
    4.6084   -1.9954    0.0000 C   0  0  0  0  0  0  0  0  0  0  0  0
    3.4563   -1.3318    0.0000 C   0  0  0  0  0  0  0  0  0  0  0  0
    3.4563    0.0000    0.0000 O   0  0  0  0  0  0  0  0  0  0  0  0
    2.3042   -1.9954    0.0000 O   0  0  0  0  0  0  0  0  0  0  0  0
    1.1521   -1.3318    0.0000 C   0  0  0  0  0  0  0  0  0  0  0  0
    0.0000   -1.9954    0.0000 C   0  0  0  0  0  0  0  0  0  0  0  0
  1  2  1  0  0  0  0
  2  3  2  0  0  0  0
  2  4  1  0  0  0  0
  4  5  1  0  0  0  0
  5  6  2  0  0  0  0
M  END
>  <ActivityOutcome_CPDBAS_Rat>
active

>  <cdk:Formula>
[]

>  <TD50_Rat_mmol>
3.96

>  <net.bioclipse.cdk.fingerprint>
AgAAAAAAAAAAAAAAAIAAAACAAAAAAAAAYAAAAAAAAAAAAAAAACASAAAQABAAAAAAAAAAAAAAEAAAAAAAAAAAAAAAAAAAAAAAAAAAAAAAABAAAAAAAAAAQAAAAAAAAAAAAAAAAAAAACAAAFAAAAAAAAAAAAAA

$$$$

 OpenBabel04131118512D

  3  2  0  0  0  0  0  0  0  0999 V2000
    2.3030   -0.6656    0.0000 C   0  0  0  0  0  0  0  0  0  0  0  0
    1.1515    0.0000    0.0000 C   0  0  0  0  0  0  0  0  0  0  0  0
    0.0000   -0.6656    0.0000 Br  0  0  0  0  0  0  0  0  0  0  0  0
  1  2  2  0  0  0  0
  2  3  1  0  0  0  0
M  END
>  <ActivityOutcome_CPDBAS_Rat>
active

>  <cdk:Formula>
[]

>  <TD50_Rat_mmol>
0.173

>  <net.bioclipse.cdk.fingerprint>
AMAQAAAAAAAAAAAAAAAAAAAAAAAQAAAAAAAAAAAAAAAAAAAAAAAAAAAAAQAAAAAAAAAAAAAAAAAAAAAAAAAAAAAAAAAAAAAAAAAAAAAAAAAAAAAAAAAAAAAAAAAAAA==

$$$$

 OpenBabel04131118512D

  3  2  0  0  0  0  0  0  0  0999 V2000
    2.3030   -0.6656    0.0000 C   0  0  0  0  0  0  0  0  0  0  0  0
    1.1515    0.0000    0.0000 C   0  0  0  0  0  0  0  0  0  0  0  0
    0.0000   -0.6656    0.0000 Cl  0  0  0  0  0  0  0  0  0  0  0  0
  1  2  2  0  0  0  0
  2  3  1  0  0  0  0
M  END
>  <ActivityOutcome_CPDBAS_Rat>
active

>  <cdk:Formula>
[]

>  <TD50_Rat_mmol>
0.0978

>  <net.bioclipse.cdk.fingerprint>
AMAAAAAAAAAAAAAAAAAAAAAAAAAQAAAAQAAAAAABAAAAAAAAAAAAAAAAAAAAAAAAAAAAAAAAAAAAAAAAAAAAAAAAAAAAAAAAAAAAAAAAAAAAAAAAAAAAAAAAAAAAAA==

$$$$

 OpenBabel04131118512D

  3  2  0  0  0  0  0  0  0  0999 V2000
    0.0000   -1.1533    0.0000 C   0  0  0  0  0  0  0  0  0  0  0  0
    0.6613    0.0000    0.0000 C   0  0  0  0  0  0  0  0  0  0  0  0
    1.9919    0.0000    0.0000 F   0  0  0  0  0  0  0  0  0  0  0  0
  1  2  2  0  0  0  0
  2  3  1  0  0  0  0
M  END
>  <ActivityOutcome_CPDBAS_Rat>
active

>  <cdk:Formula>
[]

>  <TD50_Rat_mmol>
0.434

>  <net.bioclipse.cdk.fingerprint>
QAAAIAAgAAAAAAAAAAAAAAAAABAAAAAAAAAAAAAAAAAAAAAAAAAAAAAAAAAAAAAAAAAAAAAAAAAAAAAAAAAAAAAAAAAAAAAAAAAAAAAAAAAAAAAAAAAAAAAAAAAA

$$$$

 OpenBabel04131118512D

  8  8  0  0  0  0  0  0  0  0999 V2000
    2.1180   -0.5316    0.0000 C   0  0  0  0  0  0  0  0  0  0  0  0
    3.3374    0.0000    0.0000 C   0  0  0  0  0  0  0  0  0  0  0  0
    2.2615   -1.8607    0.0000 N   0  0  0  0  0  0  0  0  0  0  0  0
    4.2192   -0.9789    0.0000 C   0  0  0  0  0  0  0  0  0  0  0  0
    3.5610   -2.1349    0.0000 C   0  0  0  0  0  0  0  0  0  0  0  0
    4.1053   -3.3543    0.0000 O   0  0  0  0  0  0  0  0  0  0  0  0
    1.2658   -2.7467    0.0000 C   0  0  0  0  0  0  0  0  0  0  0  0
    0.0000   -2.3416    0.0000 C   0  0  0  0  0  0  0  0  0  0  0  0
  1  2  1  0  0  0  0
  1  3  1  0  0  0  0
  2  4  1  0  0  0  0
  3  5  1  0  0  0  0
  3  7  1  0  0  0  0
  4  5  1  0  0  0  0
  5  6  2  0  0  0  0
  7  8  2  0  0  0  0
M  END
>  <ActivityOutcome_CPDBAS_Rat>
active

>  <cdk:Formula>
[]

>  <TD50_Rat_mmol>
0.108

>  <net.bioclipse.cdk.fingerprint>
EAAAIAAAAgAAAAABAAAAAAAAAABAAAAAAAIAAAAABAAAYAAAAAABAAAAAAABACAAAAACABAAAAAAIMAAAACAAAAAAAAAQAAAAAAAAACAAAAAACAAQAAABAAAAAAAAAAAQAAAAIAAAAAAAAAQAAEAADAAAFAAAAAAAAAAAgAA

$$$$

 OpenBabel04131118512D

 20 21  0  0  0  0  0  0  0  0999 V2000
    4.6105    0.0000    0.0000 O   0  0  0  0  0  0  0  0  0  0  0  0
    3.4579   -0.6586    0.0000 C   0  0  0  0  0  0  0  0  0  0  0  0
    3.4579   -1.9886    0.0000 C   0  0  0  0  0  0  0  0  0  0  0  0
    2.3052   -2.6599    0.0000 C   0  0  0  0  0  0  0  0  0  0  0  0
    1.1526   -1.9886    0.0000 C   0  0  0  0  0  0  0  0  0  0  0  0
    1.1526   -0.6586    0.0000 C   0  0  0  0  0  0  0  0  0  0  0  0
    2.3052    0.0000    0.0000 C   0  0  0  0  0  0  0  0  0  0  0  0
    0.0000   -2.6599    0.0000 C   0  0  0  0  0  0  0  0  0  0  0  0
    4.6105   -2.6599    0.0000 N   0  0  0  0  0  0  0  0  0  0  0  0
    5.7631   -1.9886    0.0000 N   0  0  0  0  0  0  0  0  0  0  0  0
    6.9031   -2.6599    0.0000 C   0  0  0  0  0  0  0  0  0  0  0  0
    8.0557   -1.9886    0.0000 C   0  0  0  0  0  0  0  0  0  0  0  0
    9.2083   -2.6599    0.0000 C   0  0  0  0  0  0  0  0  0  0  0  0
    9.2083   -3.9898    0.0000 C   0  0  0  0  0  0  0  0  0  0  0  0
    8.0557   -4.6485    0.0000 C   0  0  0  0  0  0  0  0  0  0  0  0
    6.9031   -3.9898    0.0000 C   0  0  0  0  0  0  0  0  0  0  0  0
   10.3609   -4.6485    0.0000 N   0  0  0  0  0  0  0  0  0  0  0  0
   11.5136   -3.9898    0.0000 C   0  0  0  0  0  0  0  0  0  0  0  0
   11.5136   -2.6599    0.0000 O   0  0  0  0  0  0  0  0  0  0  0  0
   12.6662   -4.6485    0.0000 C   0  0  0  0  0  0  0  0  0  0  0  0
  1  2  1  0  0  0  0
  2  3  2  0  0  0  0
  2  7  1  0  0  0  0
  3  4  1  0  0  0  0
  3  9  1  0  0  0  0
  4  5  2  0  0  0  0
  5  6  1  0  0  0  0
  5  8  1  0  0  0  0
  6  7  2  0  0  0  0
  9 10  2  0  0  0  0
 10 11  1  0  0  0  0
 11 12  2  0  0  0  0
 11 16  1  0  0  0  0
 12 13  1  0  0  0  0
 13 14  2  0  0  0  0
 14 15  1  0  0  0  0
 14 17  1  0  0  0  0
 15 16  2  0  0  0  0
 17 18  1  0  0  0  0
 18 19  2  0  0  0  0
 18 20  1  0  0  0  0
M  END
>  <ActivityOutcome_CPDBAS_Rat>
active

>  <cdk:Formula>
[]

>  <TD50_Rat_mmol>
1.41

>  <net.bioclipse.cdk.fingerprint>
QAAAAAABQCAiAAACCAAAAQIAAAABAABAEQBACAAEwBIAAAJpEAAAAAAAAAAAQMCAIAAEIAAAAgBCAAAIqAQAEMAMAAIAAAEBoAAAAQSAAJAAEgAAAAAAAACgAAAIAIEAIABAAEAgIAAgAAAGQIAACABAAACIUAJAAIAQAAADEIA=

$$$$
